sulfonamide5HT2c_07
  DSViewer          3D                             0

 48 50  0  0  0  0  0  0  0  0999 V2000
   -5.1199    0.8384    0.1477 C   0  0
   -5.1593   -0.5552    0.0811 C   0  0
   -6.4514   -1.3369    0.1310 C   0  0
   -7.7293   -0.5052   -0.0631 C   0  0
   -3.9572   -1.2524   -0.0148 C   0  0
   -2.7397   -0.5816   -0.0368 C   0  0
   -2.7141    0.8059    0.0317 C   0  0
   -3.9041    1.5120    0.1241 C   0  0
   -8.9868   -1.3837   -0.0630 C   0  0
  -10.2658   -0.5640   -0.2557 C   0  0
   -1.1905    1.7226   -0.0481 S   0  0
    0.0401    0.6755   -0.1191 N   0  0
    1.3489    1.0376    0.0131 C   0  0
   -1.0403    2.4673    1.1716 O   0  0
    1.7619    2.3770    0.0217 C   0  0
    3.1164    2.6916    0.1342 C   0  0
    4.0418    1.6907    0.2331 C   0  0
    3.6387    0.3542    0.2296 C   0  0
    2.3137    0.0295    0.1165 C   0  0
    4.8017   -0.5232    0.3582 C   0  0
    5.9319    0.3956    0.6477 N   0  0
    5.4957    1.7829    0.3515 C   0  0
   -1.1611    2.4531   -1.2848 O   0  0
    7.2267    0.0010    0.0802 C   0  0
   -6.0258    1.4236    0.2167 H   0  0
   -6.4109   -2.1081   -0.6390 H   0  0
   -6.4963   -1.8579    1.0878 H   0  0
   -7.8212    0.2330    0.7347 H   0  0
   -7.6734    0.0455   -1.0032 H   0  0
   -3.9666   -2.3326   -0.0670 H   0  0
   -1.8210   -1.1463   -0.1029 H   0  0
   -3.8641    2.5906    0.1721 H   0  0
   -8.9149   -2.1361   -0.8499 H   0  0
   -9.0488   -1.9314    0.8784 H   0  0
  -11.1476   -1.2038   -0.2318 H   0  0
  -10.2587   -0.0435   -1.2136 H   0  0
  -10.3758    0.1813    0.5324 H   0  0
   -0.1313   -0.0982   -0.7249 H   0  0
    1.0529    3.1888   -0.0643 H   0  0
    3.4367    3.7235    0.1399 H   0  0
    2.0260   -1.0124    0.1116 H   0  0
    4.9811   -1.0564   -0.5775 H   0  0
    4.6904   -1.2357    1.1764 H   0  0
    5.7990    2.4465    1.1616 H   0  0
    5.9324    2.1197   -0.5906 H   0  0
    7.9976    0.6912    0.4222 H   0  0
    7.1731    0.0237   -1.0094 H   0  0
    7.4756   -1.0074    0.4116 H   0  0
  1  2  2  0  0  0
  1  8  1  0  0  0
  1 25  1  0  0  0
  2  3  1  0  0  0
  2  5  1  0  0  0
  3  4  1  0  0  0
  3 26  1  0  0  0
  3 27  1  0  0  0
  4  9  1  0  0  0
  4 28  1  0  0  0
  4 29  1  0  0  0
  5  6  2  0  0  0
  5 30  1  0  0  0
  6  7  1  0  0  0
  6 31  1  0  0  0
  7  8  2  0  0  0
  7 11  1  0  0  0
  8 32  1  0  0  0
  9 10  1  0  0  0
  9 33  1  0  0  0
  9 34  1  0  0  0
 10 35  1  0  0  0
 10 36  1  0  0  0
 10 37  1  0  0  0
 11 12  1  0  0  0
 11 14  2  0  0  0
 11 23  2  0  0  0
 12 13  1  0  0  0
 12 38  1  0  0  0
 13 15  1  0  0  0
 13 19  2  0  0  0
 15 16  2  0  0  0
 15 39  1  0  0  0
 16 17  1  0  0  0
 16 40  1  0  0  0
 17 18  2  0  0  0
 17 22  1  0  0  0
 18 19  1  0  0  0
 18 20  1  0  0  0
 19 41  1  0  0  0
 20 21  1  0  0  0
 20 42  1  0  0  0
 20 43  1  0  0  0
 21 22  1  0  0  0
 21 24  1  0  0  0
 22 44  1  0  0  0
 22 45  1  0  0  0
 24 46  1  0  0  0
 24 47  1  0  0  0
 24 48  1  0  0  0
M  END
> <pKi-5HT2c>
8

$$$$
sulfonamide5HT2c_08
  SciTegic12222022393D

 48 50  0  0  0  0            999 V2000
   -5.1498    0.9132   -0.0205 C   0  0
   -5.1990   -0.4798   -0.0961 C   0  0
   -6.4958   -1.2544   -0.0981 C   0  0
   -7.7682   -0.4154    0.0961 C   0  0
   -4.0019   -1.1858   -0.1847 C   0  0
   -2.7801   -0.5237   -0.1989 C   0  0
   -2.7439    0.8636   -0.1275 C   0  0
   -3.9288    1.5789   -0.0350 C   0  0
   -9.0295   -1.2887    0.0828 C   0  0
  -10.3057   -0.4639    0.2689 C   0  0
   -1.2088    1.7600   -0.2214 S   0  0
   -0.0051    0.6819   -0.3235 N   0  0
    1.3172    0.9961   -0.2038 C   0  0
   -1.0124    2.4966    0.9970 O   0  0
    1.7856    2.3033   -0.2854 C   0  0
    3.1449    2.5649   -0.2005 C   0  0
    4.0576    1.5305   -0.0314 C   0  0
    3.5973    0.2160    0.0490 C   0  0
    2.2328   -0.0374   -0.0396 C   0  0
   -1.1861    2.4939   -1.4562 O   0  0
    4.5582   -0.9282    0.2545 C   0  0
    5.9457   -0.5917   -0.0848 N   0  0
    6.3430    0.6562    0.5692 C   0  0
    5.5304    1.8356    0.0297 C   0  0
   -6.0525    1.5041    0.0430 H   0  0
   -6.5619   -1.7947   -1.0426 H   0  0
   -6.4415   -2.0101    0.6865 H   0  0
   -7.7163    0.1275    1.0410 H   0  0
   -7.8477    0.3303   -0.6961 H   0  0
   -4.0201   -2.2653   -0.2472 H   0  0
   -1.8665   -1.0961   -0.2650 H   0  0
   -3.8819    2.6572    0.0135 H   0  0
   -9.0865   -1.8337   -0.8606 H   0  0
   -8.9676   -2.0440    0.8680 H   0  0
  -11.1899   -1.0996    0.2365 H   0  0
  -10.4064    0.2848   -0.5172 H   0  0
  -10.3026    0.0522    1.2291 H   0  0
   -0.2093   -0.0786   -0.9349 H   0  0
    1.1128    3.1358   -0.4316 H   0  0
    3.4966    3.5850   -0.2758 H   0  0
    1.8858   -1.0595    0.0272 H   0  0
    4.2617   -1.7880   -0.3482 H   0  0
    4.5284   -1.2325    1.3013 H   0  0
    6.0399   -0.4992   -1.1008 H   0  0
    6.2122    0.5437    1.6484 H   0  0
    7.4061    0.8150    0.3876 H   0  0
    5.6974    2.7187    0.6466 H   0  0
    5.8664    2.0845   -0.9770 H   0  0
  1  2  2  0
  1  8  1  0
  1 25  1  0
  2  3  1  0
  2  5  1  0
  3  4  1  0
  3 26  1  0
  3 27  1  0
  4  9  1  0
  4 28  1  0
  4 29  1  0
  5  6  2  0
  5 30  1  0
  6  7  1  0
  6 31  1  0
  7  8  2  0
  7 11  1  0
  8 32  1  0
  9 10  1  0
  9 33  1  0
  9 34  1  0
 10 35  1  0
 10 36  1  0
 10 37  1  0
 11 12  1  0
 11 14  2  0
 11 20  2  0
 12 13  1  0
 12 38  1  0
 13 15  1  0
 13 19  2  0
 15 16  2  0
 15 39  1  0
 16 17  1  0
 16 40  1  0
 17 18  2  0
 17 24  1  0
 18 19  1  0
 18 21  1  0
 19 41  1  0
 21 22  1  0
 21 42  1  0
 21 43  1  0
 22 23  1  0
 22 44  1  0
 23 24  1  0
 23 45  1  0
 23 46  1  0
 24 47  1  0
 24 48  1  0
V    1 C1
V    2 C2
V    3 C3
V    4 C4
V    5 C5
V    6 C6
V    7 C7
V    8 C8
V    9 C9
V   10 C10
V   11 S1
V   12 N1
V   13 C11
V   14 O1
V   15 C12
V   16 C13
V   17 C14
V   18 C15
V   19 C16
V   20 O2
V   21 C17
V   22 N2
V   23 C18
V   24 C19
V   25 H1
V   26 H2
V   27 H3
V   28 H4
V   29 H5
V   30 H6
V   31 H7
V   32 H8
V   33 H9
V   34 H10
V   35 H11
V   36 H12
V   37 H13
V   38 H14
V   39 H15
V   40 H16
V   41 H17
V   42 H18
V   43 H19
V   44 H20
V   45 H21
V   46 H22
V   47 H23
V   48 H24
M  END
> <Name>
sulfonamide5HT2c_08

> <pKi-5HT2c>
7.5

$$$$
sulfonamide5HT2c_10
  SciTegic12222022393D

 51 53  0  0  0  0            999 V2000
   -5.1999    0.8247    0.0558 C   0  0
   -5.2330   -0.5700    0.0071 C   0  0
   -6.5231   -1.3558   -0.0269 C   0  0
   -7.8019   -0.5274    0.1733 C   0  0
   -4.0262   -1.2643   -0.0305 C   0  0
   -2.8109   -0.5896   -0.0184 C   0  0
   -2.7917    0.7976    0.0525 C   0  0
   -3.9858    1.5021    0.0727 C   0  0
   -9.0607   -1.4039    0.1516 C   0  0
  -10.3384   -0.5822    0.3435 C   0  0
   -1.2641    1.7087    0.0073 S   0  0
   -0.0554    0.6530    0.1964 N   0  0
    1.2587    0.9332   -0.0375 C   0  0
   -1.2196    2.5868    1.1445 O   0  0
    1.7341    2.2325   -0.1611 C   0  0
    3.0815    2.4620   -0.3900 C   0  0
    3.9801    1.4050   -0.4966 C   0  0
    3.5122    0.0968   -0.3694 C   0  0
    2.1570   -0.1234   -0.1321 C   0  0
   -1.1240    2.3071   -1.2912 O   0  0
    6.6371   -0.2068    0.3890 N   0  0
    6.3135    1.2221    0.4402 C   0  0
    5.4410    1.6906   -0.7294 C   0  0
    4.4501   -1.0785   -0.4829 C   0  0
    5.5024   -1.1014    0.6323 C   0  0
   -6.1091    1.4077    0.0778 H   0  0
   -6.5750   -1.8792   -0.9821 H   0  0
   -6.4716   -2.1250    0.7444 H   0  0
   -7.7530    0.0069    1.1233 H   0  0
   -7.8849    0.2253   -0.6118 H   0  0
   -4.0308   -2.3445   -0.0827 H   0  0
   -1.8867   -1.1474   -0.0642 H   0  0
   -3.9497    2.5814    0.1054 H   0  0
   -9.1169   -1.9411   -0.7962 H   0  0
   -8.9972   -2.1646    0.9314 H   0  0
  -11.2216   -1.2191    0.3076 H   0  0
  -10.4410    0.1713   -0.4377 H   0  0
  -10.3361   -0.0717    1.3068 H   0  0
   -0.2394   -0.0161    0.9164 H   0  0
    1.0744    3.0838   -0.0769 H   0  0
    3.4302    3.4814   -0.4798 H   0  0
    1.7971   -1.1372   -0.0278 H   0  0
    7.3630   -0.4130    1.0801 H   0  0
    5.8554    1.4499    1.4047 H   0  0
    7.2579    1.7661    0.4118 H   0  0
    5.5762    2.7640   -0.8681 H   0  0
    5.7626    1.2263   -1.6620 H   0  0
    3.8693   -2.0005   -0.4440 H   0  0
    4.9295   -1.0695   -1.4620 H   0  0
    5.0668   -0.8656    1.6045 H   0  0
    5.9100   -2.1099    0.7127 H   0  0
  1  2  2  0
  1  8  1  0
  1 26  1  0
  2  3  1  0
  2  5  1  0
  3  4  1  0
  3 27  1  0
  3 28  1  0
  4  9  1  0
  4 29  1  0
  4 30  1  0
  5  6  2  0
  5 31  1  0
  6  7  1  0
  6 32  1  0
  7  8  2  0
  7 11  1  0
  8 33  1  0
  9 10  1  0
  9 34  1  0
  9 35  1  0
 10 36  1  0
 10 37  1  0
 10 38  1  0
 11 12  1  0
 11 14  2  0
 11 20  2  0
 12 13  1  0
 12 39  1  0
 13 15  1  0
 13 19  2  0
 15 16  2  0
 15 40  1  0
 16 17  1  0
 16 41  1  0
 17 18  2  0
 17 23  1  0
 18 19  1  0
 18 24  1  0
 19 42  1  0
 21 22  1  0
 21 43  1  0
 22 23  1  0
 22 44  1  0
 22 45  1  0
 23 46  1  0
 23 47  1  0
 24 25  1  0
 24 48  1  0
 24 49  1  0
 25 21  1  0
 25 50  1  0
 25 51  1  0
V    1 C1
V    2 C2
V    3 C3
V    4 C4
V    5 C5
V    6 C6
V    7 C7
V    8 C8
V    9 C9
V   10 C10
V   11 S1
V   12 N1
V   13 C11
V   14 O1
V   15 C12
V   16 C13
V   17 C14
V   18 C15
V   19 C16
V   20 O2
V   21 N2
V   22 C17
V   23 C18
V   24 C19
V   25 C20
V   26 H1
V   27 H2
V   28 H3
V   29 H4
V   30 H5
V   31 H6
V   32 H7
V   33 H8
V   34 H9
V   35 H10
V   36 H11
V   37 H12
V   38 H13
V   39 H14
V   40 H15
V   41 H16
V   42 H17
V   43 H18
V   44 H19
V   45 H20
V   46 H21
V   47 H22
V   48 H23
V   49 H24
V   50 H25
V   51 H26
M  END
> <Name>
sulfonamide5HT2c_10

> <pKi-5HT2c>
7.3

$$$$
sulfonamide5HT2c_11
  SciTegic12222022393D

 54 56  0  0  0  0            999 V2000
   -5.0456    0.6901    0.7508 C   0  0
   -5.1878   -0.5013    0.0395 C   0  0
   -6.4940   -1.2585    0.0261 C   0  0
   -7.7309   -0.3510   -0.0691 C   0  0
   -4.0903   -0.9986   -0.6612 C   0  0
   -2.8747   -0.3229   -0.6510 C   0  0
   -2.7387    0.8428    0.0903 C   0  0
   -3.8342    1.3711    0.7565 C   0  0
   -9.0308   -1.1454   -0.2473 C   0  0
  -10.2627   -0.2360   -0.2177 C   0  0
   -1.2134    1.7526    0.0531 S   0  0
   -0.0439    0.6391    0.1420 N   0  0
    1.2792    0.8671   -0.0983 C   0  0
   -1.1205    2.5537    1.2429 O   0  0
    1.8071    2.1456   -0.2268 C   0  0
    3.1624    2.3199   -0.4586 C   0  0
    4.0177    1.2274   -0.5563 C   0  0
    3.4991   -0.0587   -0.4179 C   0  0
    2.1352   -0.2250   -0.1881 C   0  0
   -1.0900    2.4162   -1.2165 O   0  0
    6.6111   -0.4658    0.4033 N   0  0
    6.3398    0.9810    0.3934 C   0  0
    5.4886    1.4474   -0.7925 C   0  0
    4.3992   -1.2642   -0.5017 C   0  0
    5.4246   -1.3045    0.6380 C   0  0
    7.6978   -0.7919    1.3414 C   0  0
   -5.8742    1.1039    1.3061 H   0  0
   -6.4925   -1.9464   -0.8204 H   0  0
   -6.5496   -1.8738    0.9245 H   0  0
   -7.8199    0.2526    0.8338 H   0  0
   -7.6154    0.3446   -0.9016 H   0  0
   -4.1783   -1.9170   -1.2255 H   0  0
   -2.0297   -0.6979   -1.2110 H   0  0
   -3.7216    2.3030    1.2927 H   0  0
   -9.0060   -1.6924   -1.1912 H   0  0
   -9.1160   -1.8924    0.5431 H   0  0
  -11.1792   -0.8098   -0.3534 H   0  0
  -10.2143    0.5130   -1.0074 H   0  0
  -10.3345    0.2905    0.7338 H   0  0
   -0.2556   -0.0888    0.7928 H   0  0
    1.1840    3.0250   -0.1471 H   0  0
    3.5541    3.3225   -0.5524 H   0  0
    1.7365   -1.2244   -0.0826 H   0  0
    5.8807    1.2596    1.3425 H   0  0
    7.2986    1.5015    0.3471 H   0  0
    5.6649    2.5103   -0.9632 H   0  0
    5.7948    0.9410   -1.7079 H   0  0
    3.7896   -2.1673   -0.4660 H   0  0
    4.9001   -1.2815   -1.4697 H   0  0
    4.9726   -1.0235    1.5914 H   0  0
    5.7668   -2.3354    0.7452 H   0  0
    7.9118   -1.8611    1.3048 H   0  0
    7.4059   -0.5105    2.3543 H   0  0
    8.5997   -0.2469    1.0598 H   0  0
  1  2  2  0
  1  8  1  0
  1 27  1  0
  2  3  1  0
  2  5  1  0
  3  4  1  0
  3 28  1  0
  3 29  1  0
  4  9  1  0
  4 30  1  0
  4 31  1  0
  5  6  2  0
  5 32  1  0
  6  7  1  0
  6 33  1  0
  7  8  2  0
  7 11  1  0
  8 34  1  0
  9 10  1  0
  9 35  1  0
  9 36  1  0
 10 37  1  0
 10 38  1  0
 10 39  1  0
 11 12  1  0
 11 14  2  0
 11 20  2  0
 12 13  1  0
 12 40  1  0
 13 15  1  0
 13 19  2  0
 15 16  2  0
 15 41  1  0
 16 17  1  0
 16 42  1  0
 17 18  2  0
 17 23  1  0
 18 19  1  0
 18 24  1  0
 19 43  1  0
 21 22  1  0
 21 26  1  0
 22 23  1  0
 22 44  1  0
 22 45  1  0
 23 46  1  0
 23 47  1  0
 24 25  1  0
 24 48  1  0
 24 49  1  0
 25 21  1  0
 25 50  1  0
 25 51  1  0
 26 52  1  0
 26 53  1  0
 26 54  1  0
V    1 C1
V    2 C2
V    3 C3
V    4 C4
V    5 C5
V    6 C6
V    7 C7
V    8 C8
V    9 C9
V   10 C10
V   11 S1
V   12 N1
V   13 C11
V   14 O1
V   15 C12
V   16 C13
V   17 C14
V   18 C15
V   19 C16
V   20 O2
V   21 N2
V   22 C17
V   23 C18
V   24 C19
V   25 C20
V   26 C21
V   27 H1
V   28 H2
V   29 H3
V   30 H4
V   31 H5
V   32 H6
V   33 H7
V   34 H8
V   35 H9
V   36 H10
V   37 H11
V   38 H12
V   39 H13
V   40 H14
V   41 H15
V   42 H16
V   43 H17
V   44 H18
V   45 H19
V   46 H20
V   47 H21
V   48 H22
V   49 H23
V   50 H24
V   51 H25
V   52 H26
V   53 H27
V   54 H28
M  END
> <Name>
sulfonamide5HT2c_11

> <pKi-5HT2c>
8

$$$$
sulfonamide5HT2c_12
  SciTegic12222022393D

 52 55  0  0  0  0            999 V2000
   -5.2385    0.7401    0.1348 C   0  0
   -5.2858   -0.6448    0.0921 C   0  0
   -6.5922   -1.3790    0.0851 C   0  0
   -4.0818   -1.3309    0.0547 C   0  0
   -2.8603   -0.6613    0.0572 C   0  0
   -2.8269    0.7267    0.1081 C   0  0
   -4.0245    1.4242    0.1456 C   0  0
   -1.2947    1.6324    0.0889 S   0  0
   -0.0880    0.5511    0.1010 N   0  0
    1.2226    0.8213   -0.1767 C   0  0
   -1.1816    2.3758    1.3126 O   0  0
    1.6972    2.1065   -0.4108 C   0  0
    3.0425    2.3189   -0.6678 C   0  0
    3.9413    1.2581   -0.7036 C   0  0
    3.4759   -0.0357   -0.4755 C   0  0
    2.1235   -0.2378   -0.2085 C   0  0
   -1.2080    2.3588   -1.1487 O   0  0
    6.6182   -0.2764    0.3046 N   0  0
    6.2790    1.1549    0.2334 C   0  0
    5.4002    1.5237   -0.9668 C   0  0
    4.4173   -1.2127   -0.5039 C   0  0
    5.4707   -1.1476    0.6079 C   0  0
    7.7220   -0.5098    1.2517 C   0  0
   -6.7351   -2.5738   -0.6060 C   0  0
   -7.9393   -3.2722   -0.6160 C   0  0
   -9.0248   -2.7615    0.0782 C   0  0
   -8.9119   -1.5662    0.7716 C   0  0
   -7.6954   -0.8886    0.7692 C   0  0
  -10.5275   -3.6280    0.0886 Cl  0  0
   -6.1472    1.3264    0.1561 H   0  0
   -4.0602   -2.4120    0.0309 H   0  0
   -1.9427   -1.2295    0.0136 H   0  0
   -3.9931    2.5037    0.1808 H   0  0
   -0.2490   -0.1927    0.7459 H   0  0
    1.0446    2.9650   -0.3929 H   0  0
    3.3881    3.3302   -0.8324 H   0  0
    1.7715   -1.2426   -0.0260 H   0  0
    5.8152    1.4578    1.1729 H   0  0
    7.2105    1.7184    0.1591 H   0  0
    5.5327    2.5826   -1.1921 H   0  0
    5.7190    0.9839   -1.8585 H   0  0
    3.8395   -2.1310   -0.3919 H   0  0
    4.8965   -1.2786   -1.4800 H   0  0
    5.0257   -0.8351    1.5548 H   0  0
    5.8571   -2.1568    0.7627 H   0  0
    8.0063   -1.5618    1.2416 H   0  0
    7.4099   -0.2312    2.2595 H   0  0
    8.5892    0.0861    0.9639 H   0  0
   -5.9114   -2.9911   -1.1683 H   0  0
   -8.0136   -4.2014   -1.1640 H   0  0
   -9.7517   -1.1584    1.3168 H   0  0
   -7.6387    0.0366    1.3262 H   0  0
  1  2  2  0
  1  7  1  0
  1 30  1  0
  2  3  1  0
  2  4  1  0
  3 24  1  0
  3 28  2  0
  4  5  2  0
  4 31  1  0
  5  6  1  0
  5 32  1  0
  6  7  2  0
  6  8  1  0
  7 33  1  0
  8  9  1  0
  8 11  2  0
  8 17  2  0
  9 10  1  0
  9 34  1  0
 10 12  1  0
 10 16  2  0
 12 13  2  0
 12 35  1  0
 13 14  1  0
 13 36  1  0
 14 15  2  0
 14 20  1  0
 15 16  1  0
 15 21  1  0
 16 37  1  0
 18 19  1  0
 18 23  1  0
 19 20  1  0
 19 38  1  0
 19 39  1  0
 20 40  1  0
 20 41  1  0
 21 22  1  0
 21 42  1  0
 21 43  1  0
 22 18  1  0
 22 44  1  0
 22 45  1  0
 23 46  1  0
 23 47  1  0
 23 48  1  0
 24 25  2  0
 24 49  1  0
 25 26  1  0
 25 50  1  0
 26 27  2  0
 26 29  1  0
 27 28  1  0
 27 51  1  0
 28 52  1  0
V    1 C1
V    2 C2
V    3 C3
V    4 C4
V    5 C5
V    6 C6
V    7 C7
V    8 S1
V    9 N1
V   10 C8
V   11 O1
V   12 C9
V   13 C10
V   14 C11
V   15 C12
V   16 C13
V   17 O2
V   18 N2
V   19 C14
V   20 C15
V   21 C16
V   22 C17
V   23 C18
V   24 C19
V   25 C20
V   26 C21
V   27 C22
V   28 C23
V   29 Cl1
V   30 H1
V   31 H2
V   32 H3
V   33 H4
V   34 H5
V   35 H6
V   36 H7
V   37 H8
V   38 H9
V   39 H10
V   40 H11
V   41 H12
V   42 H13
V   43 H14
V   44 H15
V   45 H16
V   46 H17
V   47 H18
V   48 H19
V   49 H20
V   50 H21
V   51 H22
V   52 H23
M  END
> <Name>
sulfonamide5HT2c_12

> <pKi-5HT2c>
7.7

$$$$
sulfonamide5HT2c_13
  SciTegic12222022393D

 52 55  0  0  0  0            999 V2000
   -5.2449    0.5078   -0.2187 C   0  0
   -5.2918   -0.8438    0.0817 C   0  0
   -6.5881   -1.5923    0.0776 C   0  0
   -4.1005   -1.4814    0.3878 C   0  0
   -2.8875   -0.7953    0.3939 C   0  0
   -2.8482    0.5525    0.0604 C   0  0
   -4.0395    1.2055   -0.2182 C   0  0
   -1.3463    1.5008    0.1800 S   0  0
   -0.1015    0.4712    0.1023 N   0  0
    1.1938    0.8569   -0.0820 C   0  0
   -1.2796    2.1172    1.4766 O   0  0
    1.6077    2.1774    0.0519 C   0  0
    2.9379    2.5122   -0.1475 C   0  0
    3.8801    1.5399   -0.4676 C   0  0
    3.4788    0.2100   -0.5773 C   0  0
    2.1382   -0.1171   -0.3853 C   0  0
   -1.2512    2.3620   -0.9688 O   0  0
    6.6440   -0.0534    0.1374 N   0  0
    6.2365    1.3379    0.3962 C   0  0
    5.3185    1.9320   -0.6757 C   0  0
    4.4803   -0.8743   -0.8828 C   0  0
    5.5380   -1.0235    0.2191 C   0  0
    7.7667   -0.4457    1.0053 C   0  0
   -6.6521   -2.9011   -0.3834 C   0  0
   -7.8502   -3.6125   -0.4030 C   0  0
   -9.0076   -3.0036    0.0503 C   0  0
   -8.9612   -1.6973    0.5220 C   0  0
   -7.7565   -0.9980    0.5339 C   0  0
  -10.1572   -3.6977    0.0179 F   0  0
  -10.4017   -0.9126    1.1104 Cl  0  0
   -6.1463    1.0541   -0.4637 H   0  0
   -4.0894   -2.5309    0.6504 H   0  0
   -1.9797   -1.3165    0.6555 H   0  0
   -4.0146    2.2639   -0.4310 H   0  0
   -0.2266   -0.3535    0.6510 H   0  0
    0.9123    2.9649    0.3069 H   0  0
    3.2399    3.5453   -0.0469 H   0  0
    1.8260   -1.1486   -0.4759 H   0  0
    5.7685    1.3963    1.3800 H   0  0
    7.1420    1.9459    0.4436 H   0  0
    5.3974    3.0194   -0.6503 H   0  0
    5.6408    1.6296   -1.6713 H   0  0
    3.9503   -1.8206   -0.9932 H   0  0
    4.9544   -0.6794   -1.8446 H   0  0
    5.0887   -0.9705    1.2131 H   0  0
    5.9706   -2.0200    0.1278 H   0  0
    8.0945   -1.4563    0.7568 H   0  0
    7.4533   -0.4128    2.0499 H   0  0
    8.6036    0.2378    0.8558 H   0  0
   -5.7669   -3.3986   -0.7559 H   0  0
   -7.8784   -4.6264   -0.7755 H   0  0
   -7.7428    0.0159    0.9108 H   0  0
  1  2  2  0
  1  7  1  0
  1 31  1  0
  2  3  1  0
  2  4  1  0
  3 24  1  0
  3 28  2  0
  4  5  2  0
  4 32  1  0
  5  6  1  0
  5 33  1  0
  6  7  2  0
  6  8  1  0
  7 34  1  0
  8  9  1  0
  8 11  2  0
  8 17  2  0
  9 10  1  0
  9 35  1  0
 10 12  1  0
 10 16  2  0
 12 13  2  0
 12 36  1  0
 13 14  1  0
 13 37  1  0
 14 15  2  0
 14 20  1  0
 15 16  1  0
 15 21  1  0
 16 38  1  0
 18 19  1  0
 18 23  1  0
 19 20  1  0
 19 39  1  0
 19 40  1  0
 20 41  1  0
 20 42  1  0
 21 22  1  0
 21 43  1  0
 21 44  1  0
 22 18  1  0
 22 45  1  0
 22 46  1  0
 23 47  1  0
 23 48  1  0
 23 49  1  0
 24 25  2  0
 24 50  1  0
 25 26  1  0
 25 51  1  0
 26 27  2  0
 26 29  1  0
 27 28  1  0
 27 30  1  0
 28 52  1  0
V    1 C1
V    2 C2
V    3 C3
V    4 C4
V    5 C5
V    6 C6
V    7 C7
V    8 S1
V    9 N1
V   10 C8
V   11 O1
V   12 C9
V   13 C10
V   14 C11
V   15 C12
V   16 C13
V   17 O2
V   18 N2
V   19 C14
V   20 C15
V   21 C16
V   22 C17
V   23 C18
V   24 C19
V   25 C20
V   26 C21
V   27 C22
V   28 C23
V   29 F1
V   30 Cl1
V   31 H1
V   32 H2
V   33 H3
V   34 H4
V   35 H5
V   36 H6
V   37 H7
V   38 H8
V   39 H9
V   40 H10
V   41 H11
V   42 H12
V   43 H13
V   44 H14
V   45 H15
V   46 H16
V   47 H17
V   48 H18
V   49 H19
V   50 H20
V   51 H21
V   52 H22
M  END
> <Name>
sulfonamide5HT2c_13

> <pKi-5HT2c>
7.5

$$$$
sulfonamide5HT2c_14
  SciTegic12222022393D

 53 56  0  0  0  0            999 V2000
   -5.2143    0.8353   -0.0171 C   0  0
   -5.2656   -0.5192   -0.3064 C   0  0
   -6.5693   -1.2572   -0.3329 C   0  0
   -4.0695   -1.1685   -0.5727 C   0  0
   -2.8512   -0.4923   -0.5466 C   0  0
   -2.8108    0.8508   -0.1964 C   0  0
   -4.0035    1.5219    0.0231 C   0  0
   -1.2751    1.7467   -0.1614 S   0  0
   -0.1168    0.6580    0.1504 N   0  0
    1.2207    0.8730   -0.0073 C   0  0
   -1.2905    2.6600    0.9505 O   0  0
    1.7654    2.1470   -0.1055 C   0  0
    3.1316    2.3097   -0.2726 C   0  0
    3.9804    1.2097   -0.3383 C   0  0
    3.4462   -0.0717   -0.2198 C   0  0
    2.0714   -0.2261   -0.0545 C   0  0
   -0.9954    2.2913   -1.4618 O   0  0
    6.5160   -0.4928    0.7512 N   0  0
    6.2491    0.9545    0.7187 C   0  0
    5.4615    1.4181   -0.5095 C   0  0
    4.3395   -1.2851   -0.2599 C   0  0
    5.3162   -1.3302    0.9225 C   0  0
    7.5407   -0.7994    1.7651 C   0  0
   -6.7754   -2.3140   -1.2062 C   0  0
   -7.9791   -3.0126   -1.2326 C   0  0
   -9.0067   -2.6474   -0.3734 C   0  0
   -8.8241   -1.5847    0.5020 C   0  0
   -7.6083   -0.9059    0.5153 C   0  0
  -10.2502   -3.3730   -0.3818 C   0  0
  -11.2560   -3.9523   -0.3875 N   0  0
   -6.1175    1.3974    0.1791 H   0  0
   -4.0518   -2.2263   -0.7996 H   0  0
   -1.9335   -1.0158   -0.7738 H   0  0
   -3.9749    2.5789    0.2411 H   0  0
   -0.3769    0.0243    0.8805 H   0  0
    1.1477    3.0302   -0.0486 H   0  0
    3.5341    3.3102   -0.3479 H   0  0
    1.6607   -1.2220    0.0313 H   0  0
    5.7452    1.2421    1.6423 H   0  0
    7.2108    1.4709    0.7171 H   0  0
    5.6512    2.4789   -0.6766 H   0  0
    5.8105    0.9059   -1.4065 H   0  0
    3.7190   -2.1822   -0.2443 H   0  0
    4.8811   -1.3111   -1.2055 H   0  0
    4.8186   -1.0549    1.8542 H   0  0
    5.6524   -2.3618    1.0405 H   0  0
    7.7410   -1.8703    1.7860 H   0  0
    7.1997   -0.4804    2.7500 H   0  0
    8.4658   -0.2779    1.5168 H   0  0
   -6.0045   -2.6169   -1.9017 H   0  0
   -8.1008   -3.8364   -1.9244 H   0  0
   -9.6119   -1.2819    1.1810 H   0  0
   -7.4964   -0.0920    1.2182 H   0  0
  1  2  2  0
  1  7  1  0
  1 31  1  0
  2  3  1  0
  2  4  1  0
  3 24  1  0
  3 28  2  0
  4  5  2  0
  4 32  1  0
  5  6  1  0
  5 33  1  0
  6  7  2  0
  6  8  1  0
  7 34  1  0
  8  9  1  0
  8 11  2  0
  8 17  2  0
  9 10  1  0
  9 35  1  0
 10 12  1  0
 10 16  2  0
 12 13  2  0
 12 36  1  0
 13 14  1  0
 13 37  1  0
 14 15  2  0
 14 20  1  0
 15 16  1  0
 15 21  1  0
 16 38  1  0
 18 19  1  0
 18 23  1  0
 19 20  1  0
 19 39  1  0
 19 40  1  0
 20 41  1  0
 20 42  1  0
 21 22  1  0
 21 43  1  0
 21 44  1  0
 22 18  1  0
 22 45  1  0
 22 46  1  0
 23 47  1  0
 23 48  1  0
 23 49  1  0
 24 25  2  0
 24 50  1  0
 25 26  1  0
 25 51  1  0
 26 27  2  0
 26 29  1  0
 27 28  1  0
 27 52  1  0
 28 53  1  0
 29 30  3  0
V    1 C1
V    2 C2
V    3 C3
V    4 C4
V    5 C5
V    6 C6
V    7 C7
V    8 S1
V    9 N1
V   10 C8
V   11 O1
V   12 C9
V   13 C10
V   14 C11
V   15 C12
V   16 C13
V   17 O2
V   18 N2
V   19 C14
V   20 C15
V   21 C16
V   22 C17
V   23 C18
V   24 C19
V   25 C20
V   26 C21
V   27 C22
V   28 C23
V   29 C24
V   30 N3
V   31 H1
V   32 H2
V   33 H3
V   34 H4
V   35 H5
V   36 H6
V   37 H7
V   38 H8
V   39 H9
V   40 H10
V   41 H11
V   42 H12
V   43 H13
V   44 H14
V   45 H15
V   46 H16
V   47 H17
V   48 H18
V   49 H19
V   50 H20
V   51 H21
V   52 H22
V   53 H23
M  END
> <Name>
sulfonamide5HT2c_14

> <pKi-5HT2c>
7

$$$$
sulfonamide5HT2c_15
  SciTegic12222022393D

 55 58  0  0  0  0            999 V2000
   -5.2288    0.8514   -0.4994 C   0  0
   -5.3097   -0.5253   -0.2885 C   0  0
   -6.6020   -1.2802   -0.3158 C   0  0
   -4.1389   -1.2223   -0.0410 C   0  0
   -2.9054   -0.5830    0.0239 C   0  0
   -2.8307    0.7896   -0.1645 C   0  0
   -3.9951    1.4977   -0.4144 C   0  0
   -1.2968    1.6763   -0.0075 S   0  0
   -0.1109    0.5755    0.1097 N   0  0
    1.2257    0.8283   -0.0245 C   0  0
   -1.2952    2.4020    1.2329 O   0  0
    1.7435    2.1108   -0.1556 C   0  0
    3.1094    2.3031   -0.2906 C   0  0
    3.9879    1.2250   -0.2956 C   0  0
    3.4806   -0.0655   -0.1594 C   0  0
    2.1058   -0.2492   -0.0249 C   0  0
   -1.0698    2.4175   -1.2184 O   0  0
    6.5481   -0.4066    0.8564 N   0  0
    6.2548    1.0350    0.7994 C   0  0
    5.4674    1.4662   -0.4429 C   0  0
    4.4005   -1.2592   -0.1591 C   0  0
    5.3622   -1.2611    1.0354 C   0  0
    7.5781   -0.6900    1.8714 C   0  0
   -6.7394   -2.4052   -1.1128 C   0  0
   -7.9258   -3.1333   -1.1422 C   0  0
   -8.9923   -2.7246   -0.3553 C   0  0
   -8.8813   -1.5977    0.4462 C   0  0
   -7.6818   -0.8904    0.4606 C   0  0
  -10.4587   -3.6505   -0.3437 Cl  0  0
   -6.4512    1.6758   -0.8297 C   0  0
   -4.1652   -2.2917    0.1239 H   0  0
   -2.0160   -1.1588    0.2267 H   0  0
   -3.9202    2.5669   -0.5463 H   0  0
   -0.3442   -0.1723    0.7274 H   0  0
    1.1069    2.9810   -0.1554 H   0  0
    3.4881    3.3107   -0.3894 H   0  0
    1.7199   -1.2539    0.0710 H   0  0
    5.7433    1.3293    1.7170 H   0  0
    7.2078    1.5671    0.7938 H   0  0
    5.6365    2.5291   -0.6195 H   0  0
    5.8378    0.9537   -1.3306 H   0  0
    3.7996   -2.1685   -0.1306 H   0  0
    4.9542   -1.2941   -1.0973 H   0  0
    4.8501   -0.9742    1.9557 H   0  0
    5.7141   -2.2846    1.1780 H   0  0
    7.8044   -1.7563    1.8869 H   0  0
    7.2260   -0.3821    2.8557 H   0  0
    8.4914   -0.1458    1.6262 H   0  0
   -5.9190   -2.7383   -1.7343 H   0  0
   -7.9988   -4.0116   -1.7683 H   0  0
   -9.7044   -1.2703    1.0666 H   0  0
   -7.6079   -0.0226    1.1009 H   0  0
   -6.1653    2.5928   -1.3459 H   0  0
   -6.9797    1.9604    0.0802 H   0  0
   -7.1394    1.1406   -1.4850 H   0  0
  1  2  2  0
  1  7  1  0
  1 30  1  0
  2  3  1  0
  2  4  1  0
  3 24  1  0
  3 28  2  0
  4  5  2  0
  4 31  1  0
  5  6  1  0
  5 32  1  0
  6  7  2  0
  6  8  1  0
  7 33  1  0
  8  9  1  0
  8 11  2  0
  8 17  2  0
  9 10  1  0
  9 34  1  0
 10 12  1  0
 10 16  2  0
 12 13  2  0
 12 35  1  0
 13 14  1  0
 13 36  1  0
 14 15  2  0
 14 20  1  0
 15 16  1  0
 15 21  1  0
 16 37  1  0
 18 19  1  0
 18 23  1  0
 19 20  1  0
 19 38  1  0
 19 39  1  0
 20 40  1  0
 20 41  1  0
 21 22  1  0
 21 42  1  0
 21 43  1  0
 22 18  1  0
 22 44  1  0
 22 45  1  0
 23 46  1  0
 23 47  1  0
 23 48  1  0
 24 25  2  0
 24 49  1  0
 25 26  1  0
 25 50  1  0
 26 27  2  0
 26 29  1  0
 27 28  1  0
 27 51  1  0
 28 52  1  0
 30 53  1  0
 30 54  1  0
 30 55  1  0
V    1 C1
V    2 C2
V    3 C3
V    4 C4
V    5 C5
V    6 C6
V    7 C7
V    8 S1
V    9 N1
V   10 C8
V   11 O1
V   12 C9
V   13 C10
V   14 C11
V   15 C12
V   16 C13
V   17 O2
V   18 N2
V   19 C14
V   20 C15
V   21 C16
V   22 C17
V   23 C18
V   24 C19
V   25 C20
V   26 C21
V   27 C22
V   28 C23
V   29 Cl1
V   30 C24
V   31 H1
V   32 H2
V   33 H3
V   34 H4
V   35 H5
V   36 H6
V   37 H7
V   38 H8
V   39 H9
V   40 H10
V   41 H11
V   42 H12
V   43 H13
V   44 H14
V   45 H15
V   46 H16
V   47 H17
V   48 H18
V   49 H19
V   50 H20
V   51 H21
V   52 H22
V   53 H23
V   54 H24
V   55 H25
M  END
> <Name>
sulfonamide5HT2c_15

> <pKi-5HT2c>
7.3

$$$$
sulfonamide5HT2c_16
  SciTegic12222022393D

 49 52  0  0  0  0            999 V2000
   -2.8323    1.2452   -0.1319 C   0  0
   -1.2574    1.9211   -0.0393 S   0  0
   -0.1678    0.7243    0.0008 N   0  0
    1.1778    0.8953   -0.1567 C   0  0
   -1.1269    2.6184    1.2119 O   0  0
    1.7756    2.1497   -0.2162 C   0  0
    3.1508    2.2601   -0.3544 C   0  0
    3.9548    1.1281   -0.4385 C   0  0
    3.3656   -0.1327   -0.3769 C   0  0
    1.9839   -0.2348   -0.2351 C   0  0
   -1.0022    2.6626   -1.2449 O   0  0
    6.4048   -0.7200    0.6128 N   0  0
    6.2017    0.7383    0.6342 C   0  0
    5.4456    1.2766   -0.5851 C   0  0
    4.2072   -1.3804   -0.4511 C   0  0
    5.1665   -1.5088    0.7380 C   0  0
    7.3854   -1.1303    1.6321 C   0  0
   -3.0410   -0.0941   -0.4771 C   0  0
   -4.4177   -0.4094   -0.5039 C   0  0
   -5.2580    0.6745   -0.2006 C   0  0
   -4.2990    2.0504    0.1140 S   0  0
   -6.7456    0.6488   -0.1541 C   0  0
   -7.4522   -0.5437   -0.1431 C   0  0
   -8.8445   -0.5576   -0.1002 C   0  0
   -9.5353    0.6450   -0.0685 C   0  0
   -8.8471    1.8493   -0.0781 C   0  0
   -7.4550    1.8378   -0.1201 C   0  0
  -11.2693    0.6430   -0.0135 Cl  0  0
   -0.4484   -0.0371    0.5869 H   0  0
    1.1929    3.0577   -0.1517 H   0  0
    3.5989    3.2440   -0.3874 H   0  0
    1.5298   -1.2150   -0.1935 H   0  0
    5.7064    1.0169    1.5661 H   0  0
    7.1866    1.2087    0.6527 H   0  0
    5.6825    2.3319   -0.7188 H   0  0
    5.7784    0.7784   -1.4963 H   0  0
    3.5502   -2.2505   -0.4710 H   0  0
    4.7590   -1.3985   -1.3905 H   0  0
    4.6705   -1.2485    1.6753 H   0  0
    5.4544   -2.5585    0.8177 H   0  0
    7.5891   -2.1980    1.5385 H   0  0
    6.9940   -0.9199    2.6289 H   0  0
    8.3190   -0.5864    1.4863 H   0  0
   -2.2500   -0.7962   -0.6955 H   0  0
   -4.7648   -1.4046   -0.7443 H   0  0
   -6.9401   -1.4950   -0.1626 H   0  0
   -9.3710   -1.5020   -0.0922 H   0  0
   -9.3747    2.7930   -0.0563 H   0  0
   -6.9369    2.7874   -0.1270 H   0  0
  1  2  1  0
  1 18  2  0
  1 21  1  0
  2  3  1  0
  2  5  2  0
  2 11  2  0
  3  4  1  0
  3 29  1  0
  4  6  1  0
  4 10  2  0
  6  7  2  0
  6 30  1  0
  7  8  1  0
  7 31  1  0
  8  9  2  0
  8 14  1  0
  9 10  1  0
  9 15  1  0
 10 32  1  0
 12 13  1  0
 12 17  1  0
 13 14  1  0
 13 33  1  0
 13 34  1  0
 14 35  1  0
 14 36  1  0
 15 16  1  0
 15 37  1  0
 15 38  1  0
 16 12  1  0
 16 39  1  0
 16 40  1  0
 17 41  1  0
 17 42  1  0
 17 43  1  0
 18 19  1  0
 18 44  1  0
 19 20  2  0
 19 45  1  0
 20 21  1  0
 20 22  1  0
 22 23  1  0
 22 27  2  0
 23 24  2  0
 23 46  1  0
 24 25  1  0
 24 47  1  0
 25 26  2  0
 25 28  1  0
 26 27  1  0
 26 48  1  0
 27 49  1  0
V    1 C1
V    2 S1
V    3 N1
V    4 C2
V    5 O1
V    6 C3
V    7 C4
V    8 C5
V    9 C6
V   10 C7
V   11 O2
V   12 N2
V   13 C8
V   14 C9
V   15 C10
V   16 C11
V   17 C12
V   18 C13
V   19 C14
V   20 C15
V   21 S2
V   22 C16
V   23 C17
V   24 C18
V   25 C19
V   26 C20
V   27 C21
V   28 Cl1
V   29 H1
V   30 H2
V   31 H3
V   32 H4
V   33 H5
V   34 H6
V   35 H7
V   36 H8
V   37 H9
V   38 H10
V   39 H11
V   40 H12
V   41 H13
V   42 H14
V   43 H15
V   44 H16
V   45 H17
V   46 H18
V   47 H19
V   48 H20
V   49 H21
M  END
> <Name>
sulfonamide5HT2c_16

> <pKi-5HT2c>
6.9

$$$$
sulfonamide5HT2c_17
  SciTegic12222022393D

 52 55  0  0  0  0            999 V2000
   -5.1945    0.2862    0.6725 C   0  0
   -5.2002   -0.9330    0.0186 C   0  0
   -6.4384   -1.7549   -0.0093 C   0  0
   -4.0375   -1.3579   -0.6020 C   0  0
   -2.8769   -0.5873   -0.5554 C   0  0
   -2.8641    0.6096    0.1500 C   0  0
   -4.0406    1.0653    0.7268 C   0  0
   -1.4159    1.6396    0.1695 S   0  0
   -0.1531    0.6318    0.2051 N   0  0
    1.1388    1.0143   -0.0005 C   0  0
   -1.3849    2.3760    1.4030 O   0  0
    1.5492    2.3370    0.1097 C   0  0
    2.8783    2.6715   -0.0968 C   0  0
    3.8213    1.6971   -0.4076 C   0  0
    3.4213    0.3656   -0.5027 C   0  0
    2.0829    0.0381   -0.2967 C   0  0
   -1.3365    2.3776   -1.0604 O   0  0
    6.5880    0.1066    0.2027 N   0  0
    6.1783    1.4982    0.4566 C   0  0
    5.2598    2.0881   -0.6180 C   0  0
    4.4214   -0.7200   -0.8076 C   0  0
    5.4841   -0.8654    0.2897 C   0  0
    7.7126   -0.2807    1.0702 C   0  0
   -6.4973   -3.1502   -0.1443 C   0  0
   -7.8073   -3.6760   -0.1341 C   0  0
   -8.7583   -2.6622    0.0121 C   0  0
   -8.0245   -1.1401    0.1099 S   0  0
  -10.2572   -2.8292    0.0835 C   0  0
   -6.0921    0.6521    1.1541 H   0  0
   -4.0106   -2.2927   -1.1459 H   0  0
   -1.9794   -0.9165   -1.0598 H   0  0
   -4.0386    2.0221    1.2288 H   0  0
   -0.2898   -0.1571    0.8060 H   0  0
    0.8511    3.1253    0.3540 H   0  0
    3.1786    3.7061   -0.0068 H   0  0
    1.7728   -0.9951   -0.3703 H   0  0
    5.7106    1.5592    1.4405 H   0  0
    7.0831    2.1074    0.5026 H   0  0
    5.3388    3.1756   -0.5968 H   0  0
    5.5817    1.7815   -1.6124 H   0  0
    3.8907   -1.6667   -0.9111 H   0  0
    4.8903   -0.5294   -1.7729 H   0  0
    5.0392   -0.8127    1.2858 H   0  0
    5.9181   -1.8611    0.1965 H   0  0
    8.0420   -1.2915    0.8245 H   0  0
    7.4003   -0.2450    2.1150 H   0  0
    8.5480    0.4040    0.9176 H   0  0
   -5.6265   -3.7829   -0.2426 H   0  0
   -8.0432   -4.7270   -0.2257 H   0  0
  -10.6883   -2.0737    0.7407 H   0  0
  -10.5131   -3.8141    0.4745 H   0  0
  -10.6957   -2.7228   -0.9083 H   0  0
  1  2  2  0
  1  7  1  0
  1 29  1  0
  2  3  1  0
  2  4  1  0
  3 24  2  0
  3 27  1  0
  4  5  2  0
  4 30  1  0
  5  6  1  0
  5 31  1  0
  6  7  2  0
  6  8  1  0
  7 32  1  0
  8  9  1  0
  8 11  2  0
  8 17  2  0
  9 10  1  0
  9 33  1  0
 10 12  1  0
 10 16  2  0
 12 13  2  0
 12 34  1  0
 13 14  1  0
 13 35  1  0
 14 15  2  0
 14 20  1  0
 15 16  1  0
 15 21  1  0
 16 36  1  0
 18 19  1  0
 18 23  1  0
 19 20  1  0
 19 37  1  0
 19 38  1  0
 20 39  1  0
 20 40  1  0
 21 22  1  0
 21 41  1  0
 21 42  1  0
 22 18  1  0
 22 43  1  0
 22 44  1  0
 23 45  1  0
 23 46  1  0
 23 47  1  0
 24 25  1  0
 24 48  1  0
 25 26  2  0
 25 49  1  0
 26 27  1  0
 26 28  1  0
 28 50  1  0
 28 51  1  0
 28 52  1  0
V    1 C1
V    2 C2
V    3 C3
V    4 C4
V    5 C5
V    6 C6
V    7 C7
V    8 S1
V    9 N1
V   10 C8
V   11 O1
V   12 C9
V   13 C10
V   14 C11
V   15 C12
V   16 C13
V   17 O2
V   18 N2
V   19 C14
V   20 C15
V   21 C16
V   22 C17
V   23 C18
V   24 C19
V   25 C20
V   26 C21
V   27 S2
V   28 C22
V   29 H1
V   30 H2
V   31 H3
V   32 H4
V   33 H5
V   34 H6
V   35 H7
V   36 H8
V   37 H9
V   38 H10
V   39 H11
V   40 H12
V   41 H13
V   42 H14
V   43 H15
V   44 H16
V   45 H17
V   46 H18
V   47 H19
V   48 H20
V   49 H21
V   50 H22
V   51 H23
V   52 H24
M  END
> <Name>
sulfonamide5HT2c_17

> <pKi-5HT2c>
7.9

$$$$
sulfonamide5HT2c_18
  SciTegic12222022393D

 54 57  0  0  0  0            999 V2000
   -5.1342    0.5148   -0.7528 C   0  0
   -5.2380   -0.6781   -0.0592 C   0  0
   -6.5151   -1.4462   -0.0461 C   0  0
   -4.1263   -1.1375    0.6251 C   0  0
   -2.9253   -0.4317    0.6080 C   0  0
   -2.8118    0.7373   -0.1348 C   0  0
   -3.9389    1.2302   -0.7785 C   0  0
   -1.3149    1.7001   -0.0788 S   0  0
   -0.0957    0.6327   -0.1313 N   0  0
    1.2230    0.9497   -0.2744 C   0  0
   -1.2286    2.3586    1.1960 O   0  0
    1.6972    2.2543   -0.2152 C   0  0
    3.0586    2.5057   -0.3041 C   0  0
    3.9707    1.4651   -0.4517 C   0  0
    3.5016    0.1561   -0.5229 C   0  0
    2.1344   -0.0884   -0.4276 C   0  0
   -1.2285    2.5163   -1.2594 O   0  0
    6.5265   -0.2470    0.5862 N   0  0
    6.2031    1.1862    0.6941 C   0  0
    5.4473    1.7575   -0.5121 C   0  0
    4.4598   -0.9952   -0.6712 C   0  0
    5.3616   -1.1504    0.5583 C   0  0
    7.4886   -0.6535    1.6237 C   0  0
   -6.7085   -2.8171   -0.1143 C   0  0
   -8.0154   -3.1536   -0.0691 N   0  0
   -8.6846   -2.0297    0.0051 O   0  0
   -7.8182   -0.9724    0.0365 C   0  0
   -8.2841    0.4637    0.1553 C   0  0
   -5.6407   -3.8837   -0.2397 C   0  0
   -5.9836    0.9123   -1.2917 H   0  0
   -4.1760   -2.0500    1.2038 H   0  0
   -2.0797   -0.7877    1.1782 H   0  0
   -3.8751    2.1672   -1.3100 H   0  0
   -0.2626   -0.1885    0.4120 H   0  0
    1.0286    3.0909   -0.0798 H   0  0
    3.4091    3.5266   -0.2417 H   0  0
    1.7784   -1.1085   -0.4735 H   0  0
    5.6569    1.3610    1.6235 H   0  0
    7.1469    1.7275    0.7842 H   0  0
    5.5932    2.8374   -0.5445 H   0  0
    5.8633    1.3702   -1.4421 H   0  0
    3.8868   -1.9119   -0.8102 H   0  0
    5.0520   -0.8703   -1.5774 H   0  0
    4.7862   -1.0213    1.4750 H   0  0
    5.7398   -2.1744    0.5688 H   0  0
    7.7452   -1.7066    1.4999 H   0  0
    7.0520   -0.4998    2.6113 H   0  0
    8.3993   -0.0602    1.5326 H   0  0
   -7.5935    1.0513    0.7617 H   0  0
   -9.2640    0.4995    0.6308 H   0  0
   -8.3645    0.9221   -0.8306 H   0  0
   -4.8273   -3.5511   -0.8860 H   0  0
   -6.0580   -4.7950   -0.6691 H   0  0
   -5.2330   -4.1274    0.7413 H   0  0
  1  2  2  0
  1  7  1  0
  1 30  1  0
  2  3  1  0
  2  4  1  0
  3 24  1  0
  3 27  2  0
  4  5  2  0
  4 31  1  0
  5  6  1  0
  5 32  1  0
  6  7  2  0
  6  8  1  0
  7 33  1  0
  8  9  1  0
  8 11  2  0
  8 17  2  0
  9 10  1  0
  9 34  1  0
 10 12  1  0
 10 16  2  0
 12 13  2  0
 12 35  1  0
 13 14  1  0
 13 36  1  0
 14 15  2  0
 14 20  1  0
 15 16  1  0
 15 21  1  0
 16 37  1  0
 18 19  1  0
 18 23  1  0
 19 20  1  0
 19 38  1  0
 19 39  1  0
 20 40  1  0
 20 41  1  0
 21 22  1  0
 21 42  1  0
 21 43  1  0
 22 18  1  0
 22 44  1  0
 22 45  1  0
 23 46  1  0
 23 47  1  0
 23 48  1  0
 24 25  2  0
 24 29  1  0
 25 26  1  0
 26 27  1  0
 27 28  1  0
 28 49  1  0
 28 50  1  0
 28 51  1  0
 29 52  1  0
 29 53  1  0
 29 54  1  0
V    1 C1
V    2 C2
V    3 C3
V    4 C4
V    5 C5
V    6 C6
V    7 C7
V    8 S1
V    9 N1
V   10 C8
V   11 O1
V   12 C9
V   13 C10
V   14 C11
V   15 C12
V   16 C13
V   17 O2
V   18 N2
V   19 C14
V   20 C15
V   21 C16
V   22 C17
V   23 C18
V   24 C19
V   25 N3
V   26 O3
V   27 C20
V   28 C21
V   29 C22
V   30 H1
V   31 H2
V   32 H3
V   33 H4
V   34 H5
V   35 H6
V   36 H7
V   37 H8
V   38 H9
V   39 H10
V   40 H11
V   41 H12
V   42 H13
V   43 H14
V   44 H15
V   45 H16
V   46 H17
V   47 H18
V   48 H19
V   49 H20
V   50 H21
V   51 H22
V   52 H23
V   53 H24
V   54 H25
M  END
> <Name>
sulfonamide5HT2c_18

> <pKi-5HT2c>
6.4

$$$$
sulfonamide5HT2c_19
  SciTegic12222022393D

 55 58  0  0  0  0            999 V2000
   -5.1853    0.6812    0.4547 C   0  0
   -5.1412   -0.6015   -0.0669 C   0  0
   -6.3772   -1.4428   -0.1406 C   0  0
   -3.9196   -1.0775   -0.5180 C   0  0
   -2.7641   -0.3019   -0.4375 C   0  0
   -2.8149    0.9603    0.1382 C   0  0
   -4.0400    1.4684    0.5406 C   0  0
   -1.3693    1.9902    0.2033 S   0  0
   -0.1491    0.9971    0.5675 N   0  0
    1.1653    1.1725    0.2490 C   0  0
   -1.5323    2.9096    1.2968 O   0  0
    1.8470    2.3856    0.3734 C   0  0
    3.1905    2.4374    0.0173 C   0  0
    3.8755    1.3113   -0.4258 C   0  0
    3.2060    0.0961   -0.5036 C   0  0
    1.8569    0.0423   -0.1723 C   0  0
   -1.1038    2.5168   -1.1068 O   0  0
    6.2865   -0.8184   -0.0240 N   0  0
    6.2176    0.6345    0.2123 C   0  0
    5.3369    1.4056   -0.7768 C   0  0
    3.9391   -1.1590   -0.8975 C   0  0
    5.0089   -1.5341    0.1358 C   0  0
    7.3330   -1.4167    0.8251 C   0  0
   -6.3223   -2.8111    0.0779 C   0  0
   -7.4660   -3.6039    0.0224 C   0  0
   -8.6880   -3.0119   -0.2579 C   0  0
   -8.7696   -1.6461   -0.4830 C   0  0
   -7.6108   -0.8762   -0.4257 C   0  0
  -10.1233   -3.9838   -0.3203 Cl  0  0
    1.1988    3.6228    0.9299 C   0  0
   -6.1151    1.1029    0.8122 H   0  0
   -3.8404   -2.0618   -0.9604 H   0  0
   -1.8217   -0.6762   -0.8115 H   0  0
   -4.0834    2.4710    0.9438 H   0  0
   -0.3536    0.3997    1.3425 H   0  0
    3.7217    3.3755    0.0990 H   0  0
    1.3399   -0.9059   -0.2309 H   0  0
    5.8982    0.8132    1.2412 H   0  0
    7.2333    1.0237    0.1262 H   0  0
    5.6346    2.4548   -0.7784 H   0  0
    5.4959    1.0463   -1.7933 H   0  0
    3.2229   -1.9767   -0.9837 H   0  0
    4.3815   -1.0390   -1.8867 H   0  0
    4.6421   -1.3777    1.1519 H   0  0
    5.2145   -2.6019    0.0403 H   0  0
    7.4344   -2.4776    0.5933 H   0  0
    7.0718   -1.2969    1.8781 H   0  0
    8.2907   -0.9320    0.6286 H   0  0
   -5.3845   -3.2944    0.3155 H   0  0
   -7.3918   -4.6675    0.2031 H   0  0
   -9.7169   -1.1728   -0.7022 H   0  0
   -7.7027    0.1850   -0.6156 H   0  0
    0.7365    3.4076    1.8928 H   0  0
    0.4542    4.0176    0.2415 H   0  0
    1.9356    4.4085    1.0986 H   0  0
  1  2  2  0
  1  7  1  0
  1 31  1  0
  2  3  1  0
  2  4  1  0
  3 24  1  0
  3 28  2  0
  4  5  2  0
  4 32  1  0
  5  6  1  0
  5 33  1  0
  6  7  2  0
  6  8  1  0
  7 34  1  0
  8  9  1  0
  8 11  2  0
  8 17  2  0
  9 10  1  0
  9 35  1  0
 10 12  1  0
 10 16  2  0
 12 13  2  0
 12 30  1  0
 13 14  1  0
 13 36  1  0
 14 15  2  0
 14 20  1  0
 15 16  1  0
 15 21  1  0
 16 37  1  0
 18 19  1  0
 18 23  1  0
 19 20  1  0
 19 38  1  0
 19 39  1  0
 20 40  1  0
 20 41  1  0
 21 22  1  0
 21 42  1  0
 21 43  1  0
 22 18  1  0
 22 44  1  0
 22 45  1  0
 23 46  1  0
 23 47  1  0
 23 48  1  0
 24 25  2  0
 24 49  1  0
 25 26  1  0
 25 50  1  0
 26 27  2  0
 26 29  1  0
 27 28  1  0
 27 51  1  0
 28 52  1  0
 30 53  1  0
 30 54  1  0
 30 55  1  0
V    1 C1
V    2 C2
V    3 C3
V    4 C4
V    5 C5
V    6 C6
V    7 C7
V    8 S1
V    9 N1
V   10 C8
V   11 O1
V   12 C9
V   13 C10
V   14 C11
V   15 C12
V   16 C13
V   17 O2
V   18 N2
V   19 C14
V   20 C15
V   21 C16
V   22 C17
V   23 C18
V   24 C19
V   25 C20
V   26 C21
V   27 C22
V   28 C23
V   29 Cl1
V   30 C24
V   31 H1
V   32 H2
V   33 H3
V   34 H4
V   35 H5
V   36 H6
V   37 H7
V   38 H8
V   39 H9
V   40 H10
V   41 H11
V   42 H12
V   43 H13
V   44 H14
V   45 H15
V   46 H16
V   47 H17
V   48 H18
V   49 H19
V   50 H20
V   51 H21
V   52 H22
V   53 H23
V   54 H24
V   55 H25
M  END
> <Name>
sulfonamide5HT2c_19

> <pKi-5HT2c>
7.1

$$$$
sulfonamide5HT2c_20
  SciTegic12222022393D

 61 64  0  0  0  0            999 V2000
   -5.2199    0.4554    0.0296 C   0  0
   -5.0347   -0.8780   -0.3049 C   0  0
   -6.1845   -1.8400   -0.3180 C   0  0
   -3.7498   -1.2901   -0.6264 C   0  0
   -2.6734   -0.4054   -0.5979 C   0  0
   -2.8692    0.9148   -0.2223 C   0  0
   -4.1548    1.3533    0.0543 C   0  0
   -1.5186    2.0675   -0.2546 S   0  0
   -0.2950    1.3413    0.5049 N   0  0
    1.0299    1.4412    0.1921 C   0  0
   -1.8931    3.2240    0.5108 O   0  0
    1.7366    2.6459    0.0575 C   0  0
    3.0989    2.5686   -0.2377 C   0  0
    3.7573    1.3558   -0.4120 C   0  0
    3.0511    0.1706   -0.2539 C   0  0
    1.6992    0.2304    0.0548 C   0  0
   -1.1207    2.2581   -1.6229 O   0  0
    6.1035   -0.7422    0.3624 N   0  0
    6.0755    0.7297    0.3672 C   0  0
    5.2252    1.3394   -0.7517 C   0  0
    3.7350   -1.1650   -0.3891 C   0  0
    4.8129   -1.3748    0.6812 C   0  0
    7.1803   -1.2481    1.2311 C   0  0
   -6.0013   -3.1783    0.0006 C   0  0
   -7.0619   -4.0810    0.0021 C   0  0
   -8.3346   -3.6325   -0.3148 C   0  0
   -8.5456   -2.3020   -0.6416 C   0  0
   -7.4669   -1.4215   -0.6434 C   0  0
   -9.6687   -4.7417   -0.3071 Cl  0  0
    1.0806    3.9998    0.2619 C   0  0  1  0  0  0
    0.8017    4.2532    1.7487 C   0  0
    1.8676    5.1785   -0.3380 C   0  0
   -6.1996    0.8348    0.2861 H   0  0
   -3.5520   -2.3106   -0.9251 H   0  0
   -1.6791   -0.7328   -0.8672 H   0  0
   -4.3096    2.3950    0.2985 H   0  0
   -0.5389    0.9621    1.3980 H   0  0
    3.6865    3.4683   -0.3334 H   0  0
    1.1515   -0.6927    0.1839 H   0  0
    5.7495    1.0782    1.3492 H   0  0
    7.1013    1.0786    0.2359 H   0  0
    5.5591    2.3603   -0.9403 H   0  0
    5.3788    0.7967   -1.6844 H   0  0
    2.9898   -1.9560   -0.2991 H   0  0
    4.1596   -1.2630   -1.3884 H   0  0
    4.4753   -1.0272    1.6595 H   0  0
    4.9874   -2.4481    0.7738 H   0  0
    7.2065   -2.3387    1.1999 H   0  0
    7.0118   -0.9155    2.2564 H   0  0
    8.1418   -0.8693    0.8828 H   0  0
   -5.0261   -3.5554    0.2755 H   0  0
   -6.8852   -5.1177    0.2547 H   0  0
   -9.5320   -1.9410   -0.8984 H   0  0
   -7.6638   -0.3936   -0.9142 H   0  0
    0.1427    3.9963   -0.2819 H   0  0
    0.3181    5.2189    1.8942 H   0  0
    1.7240    4.2505    2.3301 H   0  0
    0.1403    3.4972    2.1680 H   0  0
    1.2728    6.0918   -0.2986 H   0  0
    2.1176    5.0041   -1.3853 H   0  0
    2.7886    5.3793    0.2101 H   0  0
  1  2  2  0
  1  7  1  0
  1 33  1  0
  2  3  1  0
  2  4  1  0
  3 24  1  0
  3 28  2  0
  4  5  2  0
  4 34  1  0
  5  6  1  0
  5 35  1  0
  6  7  2  0
  6  8  1  0
  7 36  1  0
  8  9  1  0
  8 11  2  0
  8 17  2  0
  9 10  1  0
  9 37  1  0
 10 12  1  0
 10 16  2  0
 12 13  2  0
 12 30  1  0
 13 14  1  0
 13 38  1  0
 14 15  2  0
 14 20  1  0
 15 16  1  0
 15 21  1  0
 16 39  1  0
 18 19  1  0
 18 23  1  0
 19 20  1  0
 19 40  1  0
 19 41  1  0
 20 42  1  0
 20 43  1  0
 21 22  1  0
 21 44  1  0
 21 45  1  0
 22 18  1  0
 22 46  1  0
 22 47  1  0
 23 48  1  0
 23 49  1  0
 23 50  1  0
 24 25  2  0
 24 51  1  0
 25 26  1  0
 25 52  1  0
 26 27  2  0
 26 29  1  0
 27 28  1  0
 27 53  1  0
 28 54  1  0
 30 31  1  0
 30 32  1  0
 30 55  1  0
 31 56  1  0
 31 57  1  0
 31 58  1  0
 32 59  1  0
 32 60  1  0
 32 61  1  0
V    1 C1
V    2 C2
V    3 C3
V    4 C4
V    5 C5
V    6 C6
V    7 C7
V    8 S1
V    9 N1
V   10 C8
V   11 O1
V   12 C9
V   13 C10
V   14 C11
V   15 C12
V   16 C13
V   17 O2
V   18 N2
V   19 C14
V   20 C15
V   21 C16
V   22 C17
V   23 C18
V   24 C19
V   25 C20
V   26 C21
V   27 C22
V   28 C23
V   29 Cl1
V   30 C24
V   31 C25
V   32 C26
V   33 H1
V   34 H2
V   35 H3
V   36 H4
V   37 H5
V   38 H6
V   39 H7
V   40 H8
V   41 H9
V   42 H10
V   43 H11
V   44 H12
V   45 H13
V   46 H14
V   47 H15
V   48 H16
V   49 H17
V   50 H18
V   51 H19
V   52 H20
V   53 H21
V   54 H22
V   55 H23
V   56 H24
V   57 H25
V   58 H26
V   59 H27
V   60 H28
V   61 H29
M  END
> <Name>
sulfonamide5HT2c_20

> <pKi-5HT2c>
7.8

$$$$
sulfonamide5HT2c_21
  SciTegic12222022393D

 52 55  0  0  0  0            999 V2000
   -5.2644    0.3821   -0.1918 C   0  0
   -5.0301   -0.9494    0.1182 C   0  0
   -6.1588   -1.9283    0.2376 C   0  0
   -3.7157   -1.3445    0.3184 C   0  0
   -2.6591   -0.4437    0.2017 C   0  0
   -2.9073    0.8756   -0.1466 C   0  0
   -4.2188    1.2961   -0.3053 C   0  0
   -1.5756    2.0471   -0.2344 S   0  0
   -0.4100    1.2954   -1.0625 N   0  0
    0.9401    1.4364   -0.9138 C   0  0
   -1.0767    2.2900    1.0921 O   0  0
    1.6387    2.6484   -0.9284 C   0  0
    3.0226    2.6437   -0.7895 C   0  0
    3.7364    1.4564   -0.6652 C   0  0
    3.0491    0.2454   -0.6812 C   0  0
    1.6625    0.2536   -0.7985 C   0  0
   -2.0220    3.1735   -1.0058 O   0  0
    5.8774   -0.5766    0.7068 N   0  0
    5.7475    0.8875    0.7621 C   0  0
    5.2375    1.5008   -0.5461 C   0  0
    3.7822   -1.0706   -0.6156 C   0  0
    4.5750   -1.2639    0.6835 C   0  0
    6.7319   -1.0807    1.7948 C   0  0
   -5.9897   -3.2604   -0.1119 C   0  0
   -7.0289   -4.1811   -0.0055 C   0  0
   -8.2648   -3.7581    0.4587 C   0  0
   -8.4632   -2.4320    0.8100 C   0  0
   -7.4054   -1.5326    0.7016 C   0  0
   -9.5725   -4.8907    0.5862 Cl  0  0
    0.8133    4.3153   -1.1965 Br  0  0
   -6.2689    0.7469   -0.3570 H   0  0
   -3.4792   -2.3629    0.5948 H   0  0
   -1.6414   -0.7609    0.3840 H   0  0
   -4.4074    2.3365   -0.5309 H   0  0
   -0.7380    0.8791   -1.9103 H   0  0
    3.5696    3.5769   -0.7969 H   0  0
    1.1332   -0.6890   -0.8141 H   0  0
    5.1215    1.1657    1.6116 H   0  0
    6.7393    1.2986    0.9574 H   0  0
    5.5672    2.5387   -0.5997 H   0  0
    5.6860    1.0000   -1.4043 H   0  0
    3.0591   -1.8822   -0.7053 H   0  0
    4.4334   -1.1579   -1.4842 H   0  0
    3.9918   -0.9568    1.5537 H   0  0
    4.7651   -2.3324    0.7985 H   0  0
    6.8627   -2.1594    1.6948 H   0  0
    6.2733   -0.8581    2.7599 H   0  0
    7.7123   -0.6056    1.7410 H   0  0
   -5.0436   -3.6178   -0.4943 H   0  0
   -6.8635   -5.2115   -0.2890 H   0  0
   -9.4227   -2.0899    1.1730 H   0  0
   -7.5886   -0.5091    0.9979 H   0  0
  1  2  2  0
  1  7  1  0
  1 31  1  0
  2  3  1  0
  2  4  1  0
  3 24  1  0
  3 28  2  0
  4  5  2  0
  4 32  1  0
  5  6  1  0
  5 33  1  0
  6  7  2  0
  6  8  1  0
  7 34  1  0
  8  9  1  0
  8 11  2  0
  8 17  2  0
  9 10  1  0
  9 35  1  0
 10 12  1  0
 10 16  2  0
 12 13  2  0
 12 30  1  0
 13 14  1  0
 13 36  1  0
 14 15  2  0
 14 20  1  0
 15 16  1  0
 15 21  1  0
 16 37  1  0
 18 19  1  0
 18 23  1  0
 19 20  1  0
 19 38  1  0
 19 39  1  0
 20 40  1  0
 20 41  1  0
 21 22  1  0
 21 42  1  0
 21 43  1  0
 22 18  1  0
 22 44  1  0
 22 45  1  0
 23 46  1  0
 23 47  1  0
 23 48  1  0
 24 25  2  0
 24 49  1  0
 25 26  1  0
 25 50  1  0
 26 27  2  0
 26 29  1  0
 27 28  1  0
 27 51  1  0
 28 52  1  0
V    1 C1
V    2 C2
V    3 C3
V    4 C4
V    5 C5
V    6 C6
V    7 C7
V    8 S1
V    9 N1
V   10 C8
V   11 O1
V   12 C9
V   13 C10
V   14 C11
V   15 C12
V   16 C13
V   17 O2
V   18 N2
V   19 C14
V   20 C15
V   21 C16
V   22 C17
V   23 C18
V   24 C19
V   25 C20
V   26 C21
V   27 C22
V   28 C23
V   29 Cl1
V   30 Br1
V   31 H1
V   32 H2
V   33 H3
V   34 H4
V   35 H5
V   36 H6
V   37 H7
V   38 H8
V   39 H9
V   40 H10
V   41 H11
V   42 H12
V   43 H13
V   44 H14
V   45 H15
V   46 H16
V   47 H17
V   48 H18
V   49 H19
V   50 H20
V   51 H21
V   52 H22
M  END
> <Name>
sulfonamide5HT2c_21

> <pKi-5HT2c>
6.9

$$$$
sulfonamide5HT2c_22
  SciTegic12222022393D

 52 55  0  0  0  0            999 V2000
   -5.1729    0.5281   -0.3939 C   0  0
   -5.1056   -0.8081   -0.0347 C   0  0
   -6.3187   -1.6853   -0.0886 C   0  0
   -3.8797   -1.3042    0.3818 C   0  0
   -2.7489   -0.4915    0.4459 C   0  0
   -2.8296    0.8451    0.0759 C   0  0
   -4.0522    1.3528   -0.3356 C   0  0
   -1.4408    1.9502    0.2021 S   0  0
   -0.1404    1.0578    0.5478 N   0  0
    1.1516    1.3089    0.1785 C   0  0
   -1.6781    2.8140    1.3264 O   0  0
    1.7671    2.5641    0.1262 C   0  0
    3.1073    2.6881   -0.2169 C   0  0
    3.8693    1.5615   -0.5061 C   0  0
    3.2719    0.3053   -0.4636 C   0  0
    1.9258    0.1935   -0.1246 C   0  0
   -1.2329    2.5449   -1.0898 O   0  0
    6.3727   -0.3775    0.2163 N   0  0
    6.2018    1.0838    0.3074 C   0  0
    5.3396    1.6997   -0.8028 C   0  0
    4.0859   -0.9336   -0.7266 C   0  0
    5.1331   -1.1614    0.3686 C   0  0
    7.3880   -0.8419    1.1795 C   0  0
   -6.2175   -3.0267   -0.4267 C   0  0
   -7.3366   -3.8548   -0.4709 C   0  0
   -8.5836   -3.3246   -0.1770 C   0  0
   -8.7137   -1.9857    0.1582 C   0  0
   -7.5778   -1.1815    0.2031 C   0  0
   -9.9855   -4.3441   -0.2155 Cl  0  0
    0.9615    4.0293    0.5903 Cl  0  0
   -6.1017    0.9675   -0.7328 H   0  0
   -3.7756   -2.3370    0.6887 H   0  0
   -1.8115   -0.9081    0.7828 H   0  0
   -4.1181    2.3966   -0.6095 H   0  0
   -0.2722    0.4527    1.3374 H   0  0
    3.5798    3.6614   -0.2337 H   0  0
    1.4756   -0.7893   -0.0856 H   0  0
    5.8044    1.3327    1.2933 H   0  0
    7.1952    1.5325    0.2519 H   0  0
    5.5824    2.7582   -0.8991 H   0  0
    5.5697    1.2491   -1.7688 H   0  0
    3.4182   -1.7948   -0.7686 H   0  0
    4.5605   -0.8708   -1.7052 H   0  0
    4.7062   -0.9625    1.3521 H   0  0
    5.4078   -2.2174    0.3594 H   0  0
    7.5573   -1.9127    1.0558 H   0  0
    7.0504   -0.6422    2.1976 H   0  0
    8.3294   -0.3217    1.0011 H   0  0
   -5.2604   -3.4632   -0.6767 H   0  0
   -7.2201   -4.8981   -0.7332 H   0  0
   -9.6800   -1.5587    0.3910 H   0  0
   -7.7104   -0.1445    0.4803 H   0  0
  1  2  2  0
  1  7  1  0
  1 31  1  0
  2  3  1  0
  2  4  1  0
  3 24  1  0
  3 28  2  0
  4  5  2  0
  4 32  1  0
  5  6  1  0
  5 33  1  0
  6  7  2  0
  6  8  1  0
  7 34  1  0
  8  9  1  0
  8 11  2  0
  8 17  2  0
  9 10  1  0
  9 35  1  0
 10 12  1  0
 10 16  2  0
 12 13  2  0
 12 30  1  0
 13 14  1  0
 13 36  1  0
 14 15  2  0
 14 20  1  0
 15 16  1  0
 15 21  1  0
 16 37  1  0
 18 19  1  0
 18 23  1  0
 19 20  1  0
 19 38  1  0
 19 39  1  0
 20 40  1  0
 20 41  1  0
 21 22  1  0
 21 42  1  0
 21 43  1  0
 22 18  1  0
 22 44  1  0
 22 45  1  0
 23 46  1  0
 23 47  1  0
 23 48  1  0
 24 25  2  0
 24 49  1  0
 25 26  1  0
 25 50  1  0
 26 27  2  0
 26 29  1  0
 27 28  1  0
 27 51  1  0
 28 52  1  0
V    1 C1
V    2 C2
V    3 C3
V    4 C4
V    5 C5
V    6 C6
V    7 C7
V    8 S1
V    9 N1
V   10 C8
V   11 O1
V   12 C9
V   13 C10
V   14 C11
V   15 C12
V   16 C13
V   17 O2
V   18 N2
V   19 C14
V   20 C15
V   21 C16
V   22 C17
V   23 C18
V   24 C19
V   25 C20
V   26 C21
V   27 C22
V   28 C23
V   29 Cl1
V   30 Cl2
V   31 H1
V   32 H2
V   33 H3
V   34 H4
V   35 H5
V   36 H6
V   37 H7
V   38 H8
V   39 H9
V   40 H10
V   41 H11
V   42 H12
V   43 H13
V   44 H14
V   45 H15
V   46 H16
V   47 H17
V   48 H18
V   49 H19
V   50 H20
V   51 H21
V   52 H22
M  END
> <Name>
sulfonamide5HT2c_22

> <pKi-5HT2c>
7.4

$$$$
sulfonamide5HT2c_23
  SciTegic12222022393D

 56 59  0  0  0  0            999 V2000
   -5.1623    0.8608    0.3183 C   0  0
   -5.1779   -0.4901    0.0079 C   0  0
   -6.4634   -1.2605   -0.0294 C   0  0
   -3.9646   -1.1010   -0.2712 C   0  0
   -2.7652   -0.3920   -0.2359 C   0  0
   -2.7604    0.9455    0.1383 C   0  0
   -3.9706    1.5792    0.3725 C   0  0
   -1.2562    1.8945    0.1557 S   0  0
   -0.0719    0.8319    0.4357 N   0  0
    1.2434    1.0045    0.1229 C   0  0
   -1.3227    2.7867    1.2813 O   0  0
    1.8465    2.2574    0.0414 C   0  0
    3.2001    2.3291   -0.2891 C   0  0
    3.9552    1.1844   -0.5232 C   0  0
    3.3507   -0.0644   -0.4237 C   0  0
    2.0012   -0.1396   -0.0975 C   0  0
   -1.0670    2.4537   -1.1547 O   0  0
    6.4672   -0.7581    0.1524 N   0  0
    6.3028    0.7027    0.2500 C   0  0
    5.4210    1.3071   -0.8483 C   0  0
    4.1433   -1.3257   -0.6500 C   0  0
    5.2364   -1.5247    0.4073 C   0  0
    7.5811   -1.2134    1.0012 C   0  0
   -6.6397   -2.3204   -0.9078 C   0  0
   -7.8328   -3.0363   -0.9562 C   0  0
   -8.8716   -2.6841   -0.1085 C   0  0
   -8.7216   -1.6318    0.7815 C   0  0
   -7.5170   -0.9342    0.8126 C   0  0
  -10.3608   -3.5734   -0.1521 Cl  0  0
    1.0704    3.3771    0.3287 O   0  0
    1.7281    4.6316    0.3126 C   0  0
   -6.0800    1.3965    0.5210 H   0  0
   -3.9159   -2.1536   -0.5171 H   0  0
   -1.8351   -0.8855   -0.4815 H   0  0
   -3.9694    2.6344    0.6037 H   0  0
   -0.2713    0.2217    1.2032 H   0  0
    3.7029    3.2809   -0.3555 H   0  0
    1.5301   -1.1101   -0.0234 H   0  0
    5.9228    0.9529    1.2424 H   0  0
    7.2934    1.1552    0.1765 H   0  0
    5.6704    2.3621   -0.9659 H   0  0
    5.6278    0.8406   -1.8118 H   0  0
    3.4665   -2.1804   -0.6286 H   0  0
    4.5788   -1.3124   -1.6488 H   0  0
    4.8703   -1.2879    1.4084 H   0  0
    5.5042   -2.5822    0.4114 H   0  0
    7.7052   -2.2937    0.9107 H   0  0
    7.3807   -0.9539    2.0415 H   0  0
    8.5067   -0.7319    0.6822 H   0  0
   -5.8567   -2.6085   -1.5952 H   0  0
   -7.9367   -3.8577   -1.6517 H   0  0
   -9.5222   -1.3500    1.4517 H   0  0
   -7.4278   -0.1253    1.5240 H   0  0
    1.0184    5.4170    0.5710 H   0  0
    2.1197    4.8594   -0.6800 H   0  0
    2.5378    4.6639    1.0438 H   0  0
  1  2  2  0
  1  7  1  0
  1 32  1  0
  2  3  1  0
  2  4  1  0
  3 24  1  0
  3 28  2  0
  4  5  2  0
  4 33  1  0
  5  6  1  0
  5 34  1  0
  6  7  2  0
  6  8  1  0
  7 35  1  0
  8  9  1  0
  8 11  2  0
  8 17  2  0
  9 10  1  0
  9 36  1  0
 10 12  1  0
 10 16  2  0
 12 13  2  0
 12 30  1  0
 13 14  1  0
 13 37  1  0
 14 15  2  0
 14 20  1  0
 15 16  1  0
 15 21  1  0
 16 38  1  0
 18 19  1  0
 18 23  1  0
 19 20  1  0
 19 39  1  0
 19 40  1  0
 20 41  1  0
 20 42  1  0
 21 22  1  0
 21 43  1  0
 21 44  1  0
 22 18  1  0
 22 45  1  0
 22 46  1  0
 23 47  1  0
 23 48  1  0
 23 49  1  0
 24 25  2  0
 24 50  1  0
 25 26  1  0
 25 51  1  0
 26 27  2  0
 26 29  1  0
 27 28  1  0
 27 52  1  0
 28 53  1  0
 30 31  1  0
 31 54  1  0
 31 55  1  0
 31 56  1  0
V    1 C1
V    2 C2
V    3 C3
V    4 C4
V    5 C5
V    6 C6
V    7 C7
V    8 S1
V    9 N1
V   10 C8
V   11 O1
V   12 C9
V   13 C10
V   14 C11
V   15 C12
V   16 C13
V   17 O2
V   18 N2
V   19 C14
V   20 C15
V   21 C16
V   22 C17
V   23 C18
V   24 C19
V   25 C20
V   26 C21
V   27 C22
V   28 C23
V   29 Cl1
V   30 O3
V   31 C24
V   32 H1
V   33 H2
V   34 H3
V   35 H4
V   36 H5
V   37 H6
V   38 H7
V   39 H8
V   40 H9
V   41 H10
V   42 H11
V   43 H12
V   44 H13
V   45 H14
V   46 H15
V   47 H16
V   48 H17
V   49 H18
V   50 H19
V   51 H20
V   52 H21
V   53 H22
V   54 H23
V   55 H24
V   56 H25
M  END
> <Name>
sulfonamide5HT2c_23

> <pKi-5HT2c>
7.4

$$$$
sulfonamide5HT2c_24
  SciTegic12222022393D

 62 65  0  0  0  0            999 V2000
   -5.1570    0.8441    0.2379 C   0  0
   -5.1510   -0.4485   -0.2626 C   0  0
   -6.4070   -1.2618   -0.3180 C   0  0
   -3.9455   -0.9638   -0.7132 C   0  0
   -2.7692   -0.2195   -0.6526 C   0  0
   -2.7805    1.0529   -0.0979 C   0  0
   -3.9895    1.6011    0.3023 C   0  0
   -1.3033    2.0399   -0.0791 S   0  0
   -0.1161    1.0077    0.2774 N   0  0
    1.2048    1.1475   -0.0228 C   0  0
   -1.4046    2.9768    1.0056 O   0  0
    1.8228    2.3700   -0.2773 C   0  0
    3.1530    2.3885   -0.6739 C   0  0
    3.9089    1.2237   -0.7418 C   0  0
    3.3097    0.0075   -0.4284 C   0  0
    1.9638   -0.0160   -0.0769 C   0  0
   -1.0705    2.5207   -1.4131 O   0  0
    6.4469   -0.5871    0.1476 N   0  0
    6.2870    0.8709    0.0217 C   0  0
    5.3634    1.2952   -1.1258 C   0  0
    4.0995   -1.2744   -0.4677 C   0  0
    5.2255   -1.2913    0.5722 C   0  0
    7.5800   -0.9285    1.0243 C   0  0
   -6.3808   -2.6296   -0.0899 C   0  0
   -7.5410   -3.3984   -0.1357 C   0  0
   -8.7516   -2.7829   -0.4150 C   0  0
   -8.8054   -1.4167   -0.6461 C   0  0
   -7.6301   -0.6714   -0.5985 C   0  0
  -10.2053   -3.7275   -0.4785 Cl  0  0
    1.1608    3.5827   -0.1753 O   0  0
    1.2513    4.1807    1.1096 C   0  0  2  0  0  0
    0.4247    5.4679    1.0453 C   0  0
    2.6936    4.5081    1.5302 C   0  0
   -6.0724    1.2975    0.5947 H   0  0
   -3.8947   -1.9560   -1.1420 H   0  0
   -1.8411   -0.6268   -1.0281 H   0  0
   -4.0066    2.6120    0.6860 H   0  0
   -0.3381    0.4229    1.0559 H   0  0
    3.6098    3.3394   -0.9040 H   0  0
    1.4947   -0.9644    0.1437 H   0  0
    5.9473    1.2785    0.9763 H   0  0
    7.2745    1.2952   -0.1659 H   0  0
    5.6005    2.3199   -1.4104 H   0  0
    5.5434    0.6862   -2.0119 H   0  0
    3.4274   -2.1123   -0.2782 H   0  0
    4.4988   -1.4293   -1.4700 H   0  0
    4.8901   -0.8810    1.5268 H   0  0
    5.4948   -2.3320    0.7599 H   0  0
    7.7395   -2.0081    1.0162 H   0  0
    7.3679   -0.5975    2.0421 H   0  0
    8.4884   -0.4421    0.6659 H   0  0
   -5.4528   -3.1331    0.1445 H   0  0
   -7.4862   -4.4626    0.0488 H   0  0
   -9.7434   -0.9250   -0.8648 H   0  0
   -7.7010    0.3902   -0.7932 H   0  0
    0.8126    3.5145    1.8540 H   0  0
    0.3749    5.9554    2.0185 H   0  0
   -0.5935    5.2646    0.7190 H   0  0
    0.8588    6.1743    0.3379 H   0  0
    2.6972    5.1036    2.4431 H   0  0
    3.2077    5.0829    0.7602 H   0  0
    3.2805    3.6145    1.7437 H   0  0
  1  2  2  0
  1  7  1  0
  1 34  1  0
  2  3  1  0
  2  4  1  0
  3 24  1  0
  3 28  2  0
  4  5  2  0
  4 35  1  0
  5  6  1  0
  5 36  1  0
  6  7  2  0
  6  8  1  0
  7 37  1  0
  8  9  1  0
  8 11  2  0
  8 17  2  0
  9 10  1  0
  9 38  1  0
 10 12  1  0
 10 16  2  0
 12 13  2  0
 12 30  1  0
 13 14  1  0
 13 39  1  0
 14 15  2  0
 14 20  1  0
 15 16  1  0
 15 21  1  0
 16 40  1  0
 18 19  1  0
 18 23  1  0
 19 20  1  0
 19 41  1  0
 19 42  1  0
 20 43  1  0
 20 44  1  0
 21 22  1  0
 21 45  1  0
 21 46  1  0
 22 18  1  0
 22 47  1  0
 22 48  1  0
 23 49  1  0
 23 50  1  0
 23 51  1  0
 24 25  2  0
 24 52  1  0
 25 26  1  0
 25 53  1  0
 26 27  2  0
 26 29  1  0
 27 28  1  0
 27 54  1  0
 28 55  1  0
 30 31  1  0
 31 32  1  0
 31 33  1  0
 31 56  1  0
 32 57  1  0
 32 58  1  0
 32 59  1  0
 33 60  1  0
 33 61  1  0
 33 62  1  0
V    1 C1
V    2 C2
V    3 C3
V    4 C4
V    5 C5
V    6 C6
V    7 C7
V    8 S1
V    9 N1
V   10 C8
V   11 O1
V   12 C9
V   13 C10
V   14 C11
V   15 C12
V   16 C13
V   17 O2
V   18 N2
V   19 C14
V   20 C15
V   21 C16
V   22 C17
V   23 C18
V   24 C19
V   25 C20
V   26 C21
V   27 C22
V   28 C23
V   29 Cl1
V   30 O3
V   31 C24
V   32 C25
V   33 C26
V   34 H1
V   35 H2
V   36 H3
V   37 H4
V   38 H5
V   39 H6
V   40 H7
V   41 H8
V   42 H9
V   43 H10
V   44 H11
V   45 H12
V   46 H13
V   47 H14
V   48 H15
V   49 H16
V   50 H17
V   51 H18
V   52 H19
V   53 H20
V   54 H21
V   55 H22
V   56 H23
V   57 H24
V   58 H25
V   59 H26
V   60 H27
V   61 H28
V   62 H29
M  END
> <Name>
sulfonamide5HT2c_24

> <pKi-5HT2c>
7.4

$$$$
sulfonamide5HT2c_25
  SciTegic12222022393D

 60 63  0  0  0  0            999 V2000
   -5.1398    0.8038   -0.0499 C   0  0
   -5.0711   -0.5473   -0.3542 C   0  0
   -6.3085   -1.3904   -0.4149 C   0  0
   -3.8201   -1.0908   -0.6060 C   0  0
   -2.6652   -0.3130   -0.5489 C   0  0
   -2.7472    1.0291   -0.2079 C   0  0
   -3.9950    1.5962    0.0028 C   0  0
   -1.2893    2.0435   -0.2191 S   0  0
   -0.1706    1.1772    0.5553 N   0  0
    1.1639    1.2362    0.2971 C   0  0
   -1.5640    3.2333    0.5356 O   0  0
    1.8721    2.4302    0.1939 C   0  0
    3.2216    2.3999   -0.1277 C   0  0
    3.8898    1.1956   -0.3271 C   0  0
    3.1955   -0.0020   -0.1727 C   0  0
    1.8399    0.0327    0.1393 C   0  0
   -0.8584    2.1841   -1.5833 O   0  0
    6.2692   -0.8822    0.3974 N   0  0
    6.2262    0.5895    0.4105 C   0  0
    5.3516    1.1996   -0.6898 C   0  0
    3.8957   -1.3270   -0.3271 C   0  0
    4.9898   -1.5315    0.7283 C   0  0
    7.3624   -1.3785    1.2520 C   0  0
   -6.2813   -2.7287   -0.0513 C   0  0
   -7.4242   -3.5226   -0.1020 C   0  0
   -8.6206   -2.9642   -0.5241 C   0  0
   -8.6758   -1.6296   -0.8934 C   0  0
   -7.5176   -0.8583   -0.8397 C   0  0
  -10.0543   -3.9393   -0.5854 Cl  0  0
    1.2923    3.6359    0.4224 N   0  0
    0.9698    4.0747    1.7832 C   0  0
    1.0240    4.5637   -0.6789 C   0  0
   -6.0889    1.2795    0.1564 H   0  0
   -3.7092   -2.1326   -0.8772 H   0  0
   -1.6987   -0.7441   -0.7707 H   0  0
   -4.0612    2.6534    0.2198 H   0  0
   -0.4660    0.8099    1.4361 H   0  0
    3.7607    3.3327   -0.2126 H   0  0
    1.2964   -0.8959    0.2459 H   0  0
    5.9139    0.9288    1.4002 H   0  0
    7.2461    0.9493    0.2633 H   0  0
    5.6696    2.2266   -0.8735 H   0  0
    5.4951    0.6687   -1.6309 H   0  0
    3.1621   -2.1286   -0.2347 H   0  0
    4.3088   -1.4116   -1.3323 H   0  0
    4.6623   -1.1959    1.7144 H   0  0
    5.1780   -2.6033    0.8093 H   0  0
    7.4200   -2.4660    1.1947 H   0  0
    7.1904   -1.0729    2.2851 H   0  0
    8.3139   -0.9717    0.9104 H   0  0
   -5.3681   -3.1898    0.2994 H   0  0
   -7.3659   -4.5616    0.1931 H   0  0
   -9.6008   -1.1818   -1.2290 H   0  0
   -7.5934    0.1758   -1.1479 H   0  0
    1.8394    4.5434    2.2442 H   0  0
    0.6656    3.2312    2.4036 H   0  0
    0.1550    4.7985    1.7747 H   0  0
    0.0174    4.9732   -0.5985 H   0  0
    1.1052    4.0592   -1.6419 H   0  0
    1.7375    5.3872   -0.6607 H   0  0
  1  2  2  0
  1  7  1  0
  1 33  1  0
  2  3  1  0
  2  4  1  0
  3 24  1  0
  3 28  2  0
  4  5  2  0
  4 34  1  0
  5  6  1  0
  5 35  1  0
  6  7  2  0
  6  8  1  0
  7 36  1  0
  8  9  1  0
  8 11  2  0
  8 17  2  0
  9 10  1  0
  9 37  1  0
 10 12  1  0
 10 16  2  0
 12 13  2  0
 12 30  1  0
 13 14  1  0
 13 38  1  0
 14 15  2  0
 14 20  1  0
 15 16  1  0
 15 21  1  0
 16 39  1  0
 18 19  1  0
 18 23  1  0
 19 20  1  0
 19 40  1  0
 19 41  1  0
 20 42  1  0
 20 43  1  0
 21 22  1  0
 21 44  1  0
 21 45  1  0
 22 18  1  0
 22 46  1  0
 22 47  1  0
 23 48  1  0
 23 49  1  0
 23 50  1  0
 24 25  2  0
 24 51  1  0
 25 26  1  0
 25 52  1  0
 26 27  2  0
 26 29  1  0
 27 28  1  0
 27 53  1  0
 28 54  1  0
 30 31  1  0
 30 32  1  0
 31 55  1  0
 31 56  1  0
 31 57  1  0
 32 58  1  0
 32 59  1  0
 32 60  1  0
V    1 C1
V    2 C2
V    3 C3
V    4 C4
V    5 C5
V    6 C6
V    7 C7
V    8 S1
V    9 N1
V   10 C8
V   11 O1
V   12 C9
V   13 C10
V   14 C11
V   15 C12
V   16 C13
V   17 O2
V   18 N2
V   19 C14
V   20 C15
V   21 C16
V   22 C17
V   23 C18
V   24 C19
V   25 C20
V   26 C21
V   27 C22
V   28 C23
V   29 Cl1
V   30 N3
V   31 C24
V   32 C25
V   33 H1
V   34 H2
V   35 H3
V   36 H4
V   37 H5
V   38 H6
V   39 H7
V   40 H8
V   41 H9
V   42 H10
V   43 H11
V   44 H12
V   45 H13
V   46 H14
V   47 H15
V   48 H16
V   49 H17
V   50 H18
V   51 H19
V   52 H20
V   53 H21
V   54 H22
V   55 H23
V   56 H24
V   57 H25
V   58 H26
V   59 H27
V   60 H28
M  END
> <Name>
sulfonamide5HT2c_25

> <pKi-5HT2c>
8.3

$$$$
