ligand_1
  DSViewer          3D                             0

 54 57  0  0  0  0  0  0  0  0999 V2000
    7.2657    4.1794    1.0480 S   0  0
    9.2993    4.1383    6.7573 F   0  0
    9.3403   -0.8376   -2.7369 O   0  0
    8.5269    1.5798    2.7215 O   0  0
    5.5796    2.7025   -0.6364 N   0  0
    3.9152   -0.6747   -2.3542 N   0  0
    3.6391    3.7125   -0.2739 N   0  0
    4.6091    4.3314    0.5059 N   0  0
    8.8886    3.3104    4.1761 N   0  0
    3.5157    1.8070   -1.8913 C   0  0
    3.6526    0.3518   -1.4618 C   0  0
    4.2315    2.7509   -0.9370 C   0  0
    6.5467    1.8146   -1.1409 C   0  0
    3.5532   -0.2272   -0.1986 C   0  0
    5.7473    3.7229    0.2787 C   0  0
    3.9911   -1.8553   -1.6514 C   0  0
    3.7700   -1.5987   -0.3130 C   0  0
    4.0905   -0.5515   -3.7939 C   0  0
    6.8584    1.8284   -2.5007 C   0  0
    7.1667    0.9086   -0.2805 C   0  0
    7.7973    0.9292   -2.9979 C   0  0
    8.1051    0.0122   -0.7826 C   0  0
    8.4265    0.0162   -2.1499 C   0  0
    6.9748    3.3926    2.6636 C   0  0
    8.2185    2.6759    3.1906 C   0  0
   10.0393    2.8792    4.8640 C   0  0
   10.2131    3.3238    6.1764 C   0  0
   11.0095    2.0467    4.2938 C   0  0
   10.0142   -1.7961   -1.9284 C   0  0
   11.3289    2.9324    6.9066 C   0  0
   12.1226    1.6597    5.0293 C   0  0
   12.2819    2.1000    6.3357 C   0  0
    8.4775    4.1608    4.5324 H   0  0
    2.4571    2.0602   -1.9599 H   0  0
    3.9015    1.9690   -2.8972 H   0  0
    3.3507    0.3030    0.7204 H   0  0
    4.1958   -2.7828   -2.1659 H   0  0
    3.7644   -2.3213    0.4897 H   0  0
    4.1801   -1.5384   -4.2496 H   0  0
    3.2288   -0.0407   -4.2246 H   0  0
    4.9994    0.0135   -4.0007 H   0  0
    6.3778    2.5273   -3.1701 H   0  0
    6.9139    0.8869    0.7693 H   0  0
    8.0384    0.9383   -4.0508 H   0  0
    8.5686   -0.6798   -0.0964 H   0  0
    6.5886    4.1355    3.3627 H   0  0
    6.1791    2.6513    2.5769 H   0  0
   10.9241    1.7013    3.2746 H   0  0
   10.6914   -2.3796   -2.5520 H   0  0
   10.6127   -1.3159   -1.1527 H   0  0
    9.3136   -2.4914   -1.4635 H   0  0
   11.4560    3.2774    7.9223 H   0  0
   12.8673    1.0178    4.5819 H   0  0
   13.1482    1.7986    6.9062 H   0  0
  1 15  1  0  0  0
  1 24  1  0  0  0
  2 27  1  0  0  0
  3 23  1  0  0  0
  3 29  1  0  0  0
  4 25  2  0  0  0
  5 12  1  0  0  0
  5 13  1  0  0  0
  5 15  1  0  0  0
  6 11  1  0  0  0
  6 16  1  0  0  0
  6 18  1  0  0  0
  7  8  1  0  0  0
  7 12  2  0  0  0
  8 15  2  0  0  0
  9 25  1  0  0  0
  9 26  1  0  0  0
  9 33  1  0  0  0
 10 11  1  0  0  0
 10 12  1  0  0  0
 10 34  1  0  0  0
 10 35  1  0  0  0
 11 14  2  0  0  0
 13 19  2  0  0  0
 13 20  1  0  0  0
 14 17  1  0  0  0
 14 36  1  0  0  0
 16 17  2  0  0  0
 16 37  1  0  0  0
 17 38  1  0  0  0
 18 39  1  0  0  0
 18 40  1  0  0  0
 18 41  1  0  0  0
 19 21  1  0  0  0
 19 42  1  0  0  0
 20 22  2  0  0  0
 20 43  1  0  0  0
 21 23  2  0  0  0
 21 44  1  0  0  0
 22 23  1  0  0  0
 22 45  1  0  0  0
 24 25  1  0  0  0
 24 46  1  0  0  0
 24 47  1  0  0  0
 26 27  2  0  0  0
 26 28  1  0  0  0
 27 30  1  0  0  0
 28 31  2  0  0  0
 28 48  1  0  0  0
 29 49  1  0  0  0
 29 50  1  0  0  0
 29 51  1  0  0  0
 30 32  2  0  0  0
 30 52  1  0  0  0
 31 32  1  0  0  0
 31 53  1  0  0  0
 32 54  1  0  0  0
M  END
> <activity>
1

$$$$
ligand_2
  SciTegic10272118463D

 47 49  0  0  1  0            999 V2000
    1.8938    0.8467   -8.1947 Br  0  0
    2.9577   -1.2717   -6.2020 O   0  0
    6.0433    5.0659    1.1346 O   0  0
    3.7080   -1.9446   -3.7219 O   0  0
    7.1800    1.9765    2.4618 O   0  0
    4.8066    0.0322   -3.3679 N   0  0
    5.9776    2.4498    0.5596 N   0  0
    3.8279   -2.8538   -7.7947 C   0  0
    3.1948   -1.6352   -7.5062 C   0  0
    3.6607   -2.3767  -10.1685 C   0  0
    4.0605   -3.2153   -9.1253 C   0  0
    2.7829   -0.8009   -8.5531 C   0  0
    3.0180   -1.1718   -9.8770 C   0  0
    5.1436   -0.0455   -2.0036 C   0  0
    3.9778   -0.4701   -5.6028 C   0  0
    5.7599    1.1817   -0.0105 C   0  0
    4.2667   -3.7829   -6.6734 C   0  0
    5.3984    1.1634   -1.3571 C   0  0
    4.1547   -0.8714   -4.1313 C   0  0
    3.9114   -2.7793  -11.6102 C   0  0
    5.2689   -1.2461   -1.2922 C   0  0
    5.8546   -0.0267    0.6927 C   0  0
    5.6164   -1.2368    0.0529 C   0  0
    6.6266    2.7716    1.7011 C   0  0
    6.6443    4.1845    1.9855 C   0  0
    7.2045    4.8863    3.0485 C   0  0
    6.9325    6.2387    2.8348 C   0  0
    6.2185    6.3098    1.6510 C   0  0
    5.0601    0.9005   -3.8153 H   0  0
    5.6217    3.2264    0.0219 H   0  0
    4.5512   -4.1514   -9.3509 H   0  0
    2.6972   -0.5209  -10.6775 H   0  0
    4.9444   -0.5927   -6.0981 H   0  0
    3.7000    0.5820   -5.6831 H   0  0
    4.5564   -4.7655   -7.0478 H   0  0
    5.1197   -3.3577   -6.1441 H   0  0
    3.4582   -3.9266   -5.9556 H   0  0
    5.3143    2.0929   -1.9036 H   0  0
    4.0237   -1.9044  -12.2518 H   0  0
    4.8206   -3.3751  -11.7006 H   0  0
    3.0763   -3.3720  -11.9846 H   0  0
    5.1107   -2.2025   -1.7658 H   0  0
    6.1038   -0.0540    1.7418 H   0  0
    5.7014   -2.1652    0.5981 H   0  0
    7.7473    4.4645    3.8821 H   0  0
    7.2217    7.0653    3.4670 H   0  0
    5.7942    7.1268    1.0859 H   0  0
  1 12  1  0
  2  9  1  0
  2 15  1  0
  3 25  1  0
  3 28  1  0
  4 19  2  0
  5 24  2  0
  6 14  1  0
  6 19  1  0
  6 29  1  0
  7 16  1  0
  7 24  1  0
  7 30  1  0
  8  9  2  0
  8 11  1  0
  8 17  1  0
  9 12  1  0
 10 11  2  0
 10 13  1  0
 10 20  1  0
 11 31  1  0
 12 13  2  0
 13 32  1  0
 14 18  2  0
 14 21  1  0
 15 19  1  0
 15 33  1  0
 15 34  1  0
 16 18  1  0
 16 22  2  0
 17 35  1  0
 17 36  1  0
 17 37  1  0
 18 38  1  0
 20 39  1  0
 20 40  1  0
 20 41  1  0
 21 23  2  0
 21 42  1  0
 22 23  1  0
 22 43  1  0
 23 44  1  0
 24 25  1  0
 25 26  2  0
 26 27  1  0
 26 45  1  0
 27 28  2  0
 27 46  1  0
 28 47  1  0
M  END
> <Name>
ligand_2

> <activity>
1

$$$$
ligand_3
  SciTegic10272118463D

 46 49  0  0  1  0            999 V2000
    4.0875    2.3857    2.7502 S   0  0
    7.2082    6.4559   -1.6801 O   0  0
   -1.2305   -2.7646    2.1685 O   0  0
    6.2833    2.9678    0.8930 O   0  0
    4.4505    4.3302    0.7756 N   0  5
    8.2928    6.1720   -0.8560 N   0  0
    1.6933    3.2493    2.7492 N   0  0
    2.3668    4.0041    1.7980 N   0  0
    6.5144    4.9667   -0.1640 C   0  0
    7.8739    5.2957    0.0345 C   0  0
    1.9508    1.4053    4.4028 C   0  0
    1.0759    0.3021    3.8228 C   0  0
    8.8269    4.8095    1.0841 C   0  0
    6.1452    5.7210   -1.2749 C   0  0
    2.4537    2.3626    3.3424 C   0  0
    5.7128    4.0104    0.5644 C   0  0
    1.6625   -0.7534    3.1223 C   0  0
   -0.3108    0.3498    3.9773 C   0  0
    3.6322    3.6889    1.6528 C   0  0
   10.1310    4.4463    0.7447 C   0  0
    8.4315    4.7247    2.4193 C   0  0
    4.8850    5.8872   -2.0960 C   0  0
    0.8646   -1.7593    2.5845 C   0  0
   -1.1074   -0.6573    3.4386 C   0  0
   -0.5220   -1.7231    2.7363 C   0  0
   11.0169    3.9995    1.7174 C   0  0
    9.3164    4.2772    3.3922 C   0  0
   10.6095    3.9137    3.0417 C   0  0
   -2.6491   -2.7839    2.2845 C   0  0
    2.7882    0.9446    4.9286 H   0  0
    1.3889    1.9574    5.1580 H   0  0
    2.7344   -0.7930    2.9922 H   0  0
   -0.7740    1.1669    4.5111 H   0  0
   10.4618    4.5065   -0.2822 H   0  0
    7.4302    5.0072    2.7108 H   0  0
    4.1390    5.1247   -1.8737 H   0  0
    4.4184    6.8555   -1.9153 H   0  0
    5.0923    5.8226   -3.1642 H   0  0
    1.3253   -2.5731    2.0438 H   0  0
   -2.1761   -0.5930    3.5744 H   0  0
   12.0229    3.7184    1.4427 H   0  0
    8.9976    4.2128    4.4221 H   0  0
   11.2975    3.5657    3.7981 H   0  0
   -3.0387   -3.6690    1.7817 H   0  0
   -2.9650   -2.8322    3.3277 H   0  0
   -3.1015   -1.9109    1.8116 H   0  0
  1 15  1  0
  1 19  1  0
  2  6  1  0
  2 14  1  0
  3 25  1  0
  3 29  1  0
  4 16  2  0
  5 16  1  0
  5 19  1  0
  6 10  2  0
  7  8  1  0
  7 15  2  0
  8 19  2  0
  9 10  1  0
  9 14  2  0
  9 16  1  0
 10 13  1  0
 11 12  1  0
 11 15  1  0
 11 30  1  0
 11 31  1  0
 12 17  2  0
 12 18  1  0
 13 20  2  0
 13 21  1  0
 14 22  1  0
 17 23  1  0
 17 32  1  0
 18 24  2  0
 18 33  1  0
 20 26  1  0
 20 34  1  0
 21 27  2  0
 21 35  1  0
 22 36  1  0
 22 37  1  0
 22 38  1  0
 23 25  2  0
 23 39  1  0
 24 25  1  0
 24 40  1  0
 26 28  2  0
 26 41  1  0
 27 28  1  0
 27 42  1  0
 28 43  1  0
 29 44  1  0
 29 45  1  0
 29 46  1  0
M  CHG  1   5  -1
M  END
> <Name>
ligand_3

> <activity>
1

$$$$
ligand_4
  SciTegic10272118463D

 61 63  0  0  1  0            999 V2000
    2.1804    7.4094   -0.6463 O   0  0
    0.5420    7.1134   -2.9417 O   0  0
   -5.2887    9.6928   -5.2652 O   0  0
   -3.7844    9.8018   -3.5421 O   0  0
    4.7245    6.1730   -0.8905 N   0  3  1  0  0  0
   -2.0021    8.5737   -7.6246 N   0  0
    7.5865    6.8546   -1.3148 C   0  0  1  0  0  0
    7.1186    6.0221   -0.1059 C   0  0
    6.4505    7.7749   -1.8010 C   0  0
    5.8451    5.2166   -0.4126 C   0  0
    5.1568    7.0054   -2.1221 C   0  0
    3.4330    5.3464   -1.1502 C   0  0
    8.8657    7.6490   -0.9973 C   0  0
    2.1533    6.1984   -1.3826 C   0  0  2  0  0  0
    1.8024    6.4492   -2.8646 C   0  0
   -1.8419    8.4536   -5.3726 C   0  0
   -1.1909    8.1270   -6.5951 C   0  0
    0.0098    7.4290   -4.1773 C   0  0
   -3.0725    9.1225   -5.7101 C   0  0
   -3.1158    9.2161   -7.1054 C   0  0
   -1.2191    8.0866   -4.1650 C   0  0
    0.0449    7.4673   -6.6237 C   0  0
    0.6227    7.1309   -5.4012 C   0  0
   -1.6762    8.4405   -9.0433 C   0  0
   -4.1281    9.8706   -8.0363 C   0  0
   -4.0512    9.6080   -4.7301 C   0  0
   -6.3970   10.1081   -4.4785 C   0  0
   -7.6527   10.1437   -5.3546 C   0  0
    1.3628    7.8845   -0.8204 H   0  0
    7.8285    6.1636   -2.1251 H   0  0
    7.9090    5.3349    0.1996 H   0  0
    6.9369    6.6732    0.7509 H   0  0
    6.2372    8.5345   -1.0468 H   0  0
    6.7700    8.3180   -2.6917 H   0  0
    5.4789    4.7059    0.4796 H   0  0
    6.0058    4.4869   -1.2087 H   0  0
    5.2801    6.3120   -2.9558 H   0  0
    4.3539    7.7082   -2.3354 H   0  0
    3.6610    4.6891   -1.9916 H   0  0
    3.3040    4.7271   -0.2604 H   0  0
    9.2123    8.2053   -1.8691 H   0  0
    8.7029    8.3659   -0.1914 H   0  0
    9.6768    6.9870   -0.6917 H   0  0
    1.3258    5.6236   -0.9626 H   0  0
    1.7357    5.4913   -3.3841 H   0  0
    2.5694    7.0385   -3.3651 H   0  0
   -1.6856    8.3120   -3.2176 H   0  0
    0.5422    7.2217   -7.5505 H   0  0
    1.5740    6.6221   -5.4293 H   0  0
   -2.5824    8.4237   -9.6487 H   0  0
   -1.0486    9.2783   -9.3483 H   0  0
   -1.1414    7.5063   -9.2173 H   0  0
   -4.7732   10.5871   -7.5303 H   0  0
   -3.6445   10.4313   -8.8365 H   0  0
   -4.7769    9.1308   -8.5052 H   0  0
   -6.5410    9.4194   -3.6443 H   0  0
   -6.2071   11.0968   -4.0573 H   0  0
   -8.5201   10.4605   -4.7754 H   0  0
   -7.5341   10.8406   -6.1849 H   0  0
   -7.8713    9.1595   -5.7701 H   0  0
    4.5203    6.8170   -0.1376 H   0  0
  1 14  1  0
  1 29  1  0
  2 15  1  0
  2 18  1  0
  3 26  1  0
  3 27  1  0
  4 26  2  0
  5 10  1  0
  5 11  1  0
  5 12  1  0
  5 61  1  0
  6 17  1  0
  6 20  1  0
  6 24  1  0
  7  8  1  0
  7  9  1  0
  7 13  1  0
  7 30  1  0
  8 10  1  0
  8 31  1  0
  8 32  1  0
  9 11  1  0
  9 33  1  0
  9 34  1  0
 10 35  1  0
 10 36  1  0
 11 37  1  0
 11 38  1  0
 12 14  1  0
 12 39  1  0
 12 40  1  0
 13 41  1  0
 13 42  1  0
 13 43  1  0
 14 15  1  0
 14 44  1  0
 15 45  1  0
 15 46  1  0
 16 17  1  0
 16 19  1  0
 16 21  2  0
 17 22  2  0
 18 21  1  0
 18 23  2  0
 19 20  2  0
 19 26  1  0
 20 25  1  0
 21 47  1  0
 22 23  1  0
 22 48  1  0
 23 49  1  0
 24 50  1  0
 24 51  1  0
 24 52  1  0
 25 53  1  0
 25 54  1  0
 25 55  1  0
 27 28  1  0
 27 56  1  0
 27 57  1  0
 28 58  1  0
 28 59  1  0
 28 60  1  0
M  CHG  1   5   1
M  END
> <Name>
ligand_4

> <activity>
1

$$$$
ligand_5
  SciTegic10272118463D

 61 63  0  0  1  0            999 V2000
    2.2214    7.6361   -0.5639 O   0  0
    0.5842    7.2195   -2.8414 O   0  0
   -5.2298    9.6958   -5.3143 O   0  0
   -3.7271    9.8929   -3.5975 O   0  0
    4.7609    6.3769   -0.7387 N   0  3  1  0  0  0
   -1.9465    8.4289   -7.6024 N   0  0
    7.6359    7.0347   -1.1947 C   0  0  2  0  0  0
    7.1579    6.2582    0.0491 C   0  0
    6.4948    7.9164   -1.7412 C   0  0
    5.8762    5.4440   -0.2041 C   0  0
    5.1944    7.1374   -2.0158 C   0  0
    3.4653    5.5429   -0.9497 C   0  0
    8.2456    6.1162   -2.2736 C   0  0
    2.1896    6.3859   -1.2313 C   0  0  2  0  0  0
    1.8413    6.5546   -2.7255 C   0  0
   -1.7897    8.4342   -5.3469 C   0  0
   -1.1390    8.0362   -6.5482 C   0  0
    0.0551    7.4682   -4.0935 C   0  0
   -3.0162    9.0898   -5.7231 C   0  0
   -3.0573    9.1054   -7.1216 C   0  0
   -1.1703    8.1320   -4.1197 C   0  0
    0.0933    7.3694   -6.5381 C   0  0
    0.6678    7.0988   -5.2979 C   0  0
   -1.6196    8.2149   -9.0109 C   0  0
   -4.0649    9.7122   -8.0891 C   0  0
   -3.9934    9.6345   -4.7733 C   0  0
   -6.3368   10.1605   -4.5537 C   0  0
   -7.5912   10.1537   -5.4324 C   0  0
    1.4060    8.1042   -0.7651 H   0  0
    8.4377    7.7023   -0.8730 H   0  0
    7.9484    5.5958    0.4049 H   0  0
    6.9743    6.9591    0.8652 H   0  0
    6.2806    8.7120   -1.0256 H   0  0
    6.8161    8.4235   -2.6521 H   0  0
    5.5082    4.9967    0.7206 H   0  0
    6.0248    4.6599   -0.9485 H   0  0
    5.3044    6.4002   -2.8127 H   0  0
    4.3955    7.8339   -2.2621 H   0  0
    3.6900    4.8369   -1.7518 H   0  0
    3.3336    4.9767   -0.0257 H   0  0
    8.6284    6.6972   -3.1135 H   0  0
    9.0805    5.5398   -1.8734 H   0  0
    7.5191    5.4075   -2.6710 H   0  0
    1.3592    5.8392   -0.7806 H   0  0
    2.6116    7.1111   -3.2574 H   0  0
    1.7704    5.5694   -3.1903 H   0  0
   -1.6366    8.4126   -3.1872 H   0  0
    0.5903    7.0696   -7.4490 H   0  0
    1.6163    6.5841   -5.2961 H   0  0
   -2.5252    8.1691   -9.6158 H   0  0
   -0.9871    9.0309   -9.3614 H   0  0
   -1.0898    7.2695   -9.1316 H   0  0
   -4.7066   10.4595   -7.6250 H   0  0
   -3.5773   10.2246   -8.9188 H   0  0
   -4.7173    8.9508   -8.5168 H   0  0
   -6.4856    9.5204   -3.6825 H   0  0
   -6.1420   11.1702   -4.1883 H   0  0
   -8.4576   10.5071   -4.8732 H   0  0
   -7.4678   10.8022   -6.3003 H   0  0
   -7.8146    9.1489   -5.7924 H   0  0
    4.5598    7.0639   -0.0240 H   0  0
  1 14  1  0
  1 29  1  0
  2 15  1  0
  2 18  1  0
  3 26  1  0
  3 27  1  0
  4 26  2  0
  5 10  1  0
  5 11  1  0
  5 12  1  0
  5 61  1  0
  6 17  1  0
  6 20  1  0
  6 24  1  0
  7  8  1  0
  7  9  1  0
  7 13  1  0
  7 30  1  0
  8 10  1  0
  8 31  1  0
  8 32  1  0
  9 11  1  0
  9 33  1  0
  9 34  1  0
 10 35  1  0
 10 36  1  0
 11 37  1  0
 11 38  1  0
 12 14  1  0
 12 39  1  0
 12 40  1  0
 13 41  1  0
 13 42  1  0
 13 43  1  0
 14 15  1  0
 14 44  1  0
 15 45  1  0
 15 46  1  0
 16 17  1  0
 16 19  1  0
 16 21  2  0
 17 22  2  0
 18 21  1  0
 18 23  2  0
 19 20  2  0
 19 26  1  0
 20 25  1  0
 21 47  1  0
 22 23  1  0
 22 48  1  0
 23 49  1  0
 24 50  1  0
 24 51  1  0
 24 52  1  0
 25 53  1  0
 25 54  1  0
 25 55  1  0
 27 28  1  0
 27 56  1  0
 27 57  1  0
 28 58  1  0
 28 59  1  0
 28 60  1  0
M  CHG  1   5   1
M  END
> <Name>
ligand_5

> <activity>
1

$$$$
ligand_6
  SciTegic10272118463D

 45 47  0  0  1  0            999 V2000
    8.8163   -0.8929    4.7747 O   0  0
    7.4833    3.9380    2.0536 O   0  0
    9.6006    0.4478    0.1655 O   0  0
    9.5116    0.2721    2.4545 N   0  0
    8.2660    4.3837    0.9928 N   0  0
    8.7744    2.2283    1.4184 C   0  0
    9.0138    3.3659    0.6179 C   0  0
    9.9953   -1.0276    2.7042 C   0  0
    7.7678    2.6353    2.2896 C   0  0
    9.9726    3.5432   -0.5194 C   0  0
    9.3350    0.9072    1.2765 C   0  0
    9.6335   -1.6192    3.9219 C   0  0
    8.3873   -1.4630    6.0071 C   0  0
    7.4783   -0.4500    6.7177 C   0  0
   10.8313   -1.7154    1.8173 C   0  0
   10.1052   -2.9050    4.2148 C   0  0
    6.9626    1.9756    3.3890 C   0  0
   11.2853    3.0817   -0.4207 C   0  0
    9.5712    4.1852   -1.6917 C   0  0
   11.2879   -2.9881    2.1259 C   0  0
   10.9228   -3.5834    3.3224 C   0  0
    6.9508   -0.9595    8.0660 C   0  0
   12.1750    3.2495   -1.4744 C   0  0
   10.4607    4.3538   -2.7456 C   0  0
   11.7629    3.8849   -2.6378 C   0  0
    9.1950    0.7582    3.2806 H   0  0
    7.8390   -2.3892    5.8242 H   0  0
    9.2492   -1.6959    6.6351 H   0  0
    8.0253    0.4808    6.8739 H   0  0
    6.6348   -0.2039    6.0712 H   0  0
   11.1524   -1.2746    0.8862 H   0  0
    9.8479   -3.3996    5.1387 H   0  0
    6.9784    0.8879    3.3226 H   0  0
    7.3398    2.2442    4.3757 H   0  0
    5.9150    2.2750    3.3525 H   0  0
   11.6240    2.5893    0.4793 H   0  0
    8.5604    4.5541   -1.7908 H   0  0
   11.9320   -3.5127    1.4355 H   0  0
   11.2795   -4.5742    3.5630 H   0  0
    6.3105   -0.2149    8.5399 H   0  0
    6.3632   -1.8701    7.9432 H   0  0
    7.7679   -1.1785    8.7542 H   0  0
   13.1883    2.8860   -1.3876 H   0  0
   10.1385    4.8497   -3.6494 H   0  0
   12.4546    4.0155   -3.4571 H   0  0
  1 12  1  0
  1 13  1  0
  2  5  1  0
  2  9  1  0
  3 11  2  0
  4  8  1  0
  4 11  1  0
  4 26  1  0
  5  7  2  0
  6  7  1  0
  6  9  2  0
  6 11  1  0
  7 10  1  0
  8 12  2  0
  8 15  1  0
  9 17  1  0
 10 18  2  0
 10 19  1  0
 12 16  1  0
 13 14  1  0
 13 27  1  0
 13 28  1  0
 14 22  1  0
 14 29  1  0
 14 30  1  0
 15 20  2  0
 15 31  1  0
 16 21  2  0
 16 32  1  0
 17 33  1  0
 17 34  1  0
 17 35  1  0
 18 23  1  0
 18 36  1  0
 19 24  2  0
 19 37  1  0
 20 21  1  0
 20 38  1  0
 21 39  1  0
 22 40  1  0
 22 41  1  0
 22 42  1  0
 23 25  2  0
 23 43  1  0
 24 25  1  0
 24 44  1  0
 25 45  1  0
M  END
> <Name>
ligand_6

> <activity>
1

$$$$
ligand_7
  SciTegic10272118463D

 26 28  0  0  1  0            999 V2000
   13.6436   -0.2672    4.1921 Cl  0  0
    6.6559    2.0866    1.0326 S   0  0
    2.6004    0.3672   -1.1971 S   0  0
   10.9102   -0.0139    2.9968 S   0  0
    8.4980   -2.1174    0.7544 O   0  0
    8.4253    0.1106    1.3016 N   0  0
    6.2884   -0.3371    0.2451 N   0  0
    5.1726    0.2943   -0.0831 C   0  0
    4.0871   -0.4296   -0.7478 C   0  0
    7.1646    0.4466    0.8331 C   0  0
   10.3356   -1.1693    1.8140 C   0  0
    5.1616    1.6494    0.2618 C   0  0
    9.0066   -1.1099    1.2509 C   0  0
    4.0436   -1.7770   -1.1144 C   0  0
   11.2830   -2.1726    1.6044 C   0  0
    2.8496   -2.1533   -1.7373 C   0  0
    1.9588   -1.1000   -1.8580 C   0  0
   12.4612   -1.9835    2.3351 C   0  0
   12.4205   -0.8536    3.1381 C   0  0
    8.9506    0.8590    1.7278 H   0  0
    4.3817    2.3801    0.1071 H   0  0
    4.8560   -2.4662   -0.9343 H   0  0
   11.1298   -3.0105    0.9391 H   0  0
    2.6449   -3.1550   -2.0857 H   0  0
    0.9721   -1.1160   -2.2967 H   0  0
   13.3085   -2.6515    2.2869 H   0  0
  1 19  1  0
  2 10  1  0
  2 12  1  0
  3  9  1  0
  3 17  1  0
  4 11  1  0
  4 19  1  0
  5 13  2  0
  6 10  1  0
  6 13  1  0
  6 20  1  0
  7  8  1  0
  7 10  2  0
  8  9  1  0
  8 12  2  0
  9 14  2  0
 11 13  1  0
 11 15  2  0
 12 21  1  0
 14 16  1  0
 14 22  1  0
 15 18  1  0
 15 23  1  0
 16 17  2  0
 16 24  1  0
 17 25  1  0
 18 19  2  0
 18 26  1  0
M  END
> <Name>
ligand_7

> <activity>
1

$$$$
ligand_8
  SciTegic10272118463D

 71 75  0  0  1  0            999 V2000
   -5.1700    1.0715   -0.5925 C   0  0
   -4.4183    0.7572    0.5786 O   0  0
   -3.0748    0.4519    0.4623 C   0  0
   -2.3595    0.1483    1.6201 C   0  0
   -1.0048   -0.1645    1.5144 C   0  0
   -0.3910   -0.1695    0.2584 C   0  0
    1.0478   -0.5264    0.1450 C   0  0
    1.9969    0.3585    0.3152 N   0  0
    3.1585   -0.3358    0.1357 C   0  0
    4.4777    0.1308    0.2086 C   0  0
    5.5129   -0.7785   -0.0066 C   0  0
    6.7935   -0.3489    0.0625 F   0  0
    5.2492   -2.1201   -0.2899 C   0  0
    6.2816   -2.9707   -0.4892 F   0  0
    3.9448   -2.6125   -0.3716 C   0  0
    2.9027   -1.6999   -0.1534 C   0  0
    1.5162   -1.8029   -0.1338 N   0  0
    0.6859   -3.0109   -0.3511 C   0  0  1  0  0  0
    0.3991   -3.2314   -1.8771 C   0  0
   -0.7716   -4.2176   -2.1407 C   0  0
   -1.1194   -4.3308   -3.6378 C   0  0
    0.1144   -4.6970   -4.4827 C   0  0
    1.2723   -3.7094   -4.2500 C   0  0
    1.6325   -3.5779   -2.7562 C   0  0
    1.1597   -4.2345    0.4740 C   0  0
    1.4007   -5.3163   -0.0622 O   0  0
    1.3016   -4.0315    1.7972 N   0  0
    1.8309   -4.9947    2.7662 C   0  0
    1.4423   -4.6351    4.2192 C   0  0
    2.2058   -3.3995    4.7443 C   0  0
    3.7324   -3.5726    4.6114 C   0  0
    4.1469   -3.9607    3.1782 C   0  0
    3.3658   -5.1928    2.6727 C   0  0
   -1.1628    0.1523   -0.8660 C   0  0
   -0.5638    0.1629   -2.1144 O   0  0
   -1.3507    0.4282   -3.2737 C   0  0
   -2.4895    0.4553   -0.7690 N   0  0
   -6.2020    1.2842   -0.3143 H   0  0
   -4.7733    1.9545   -1.0961 H   0  0
   -5.1810    0.2370   -1.2955 H   0  0
   -2.8479    0.1538    2.5832 H   0  0
   -0.4382   -0.4059    2.4024 H   0  0
    4.6916    1.1662    0.4283 H   0  0
    3.7636   -3.6546   -0.5892 H   0  0
   -0.2833   -2.7850    0.0962 H   0  0
    0.0424   -2.2716   -2.2511 H   0  0
   -0.5237   -5.2109   -1.7662 H   0  0
   -1.6583   -3.9004   -1.5899 H   0  0
   -1.9040   -5.0744   -3.7827 H   0  0
   -1.5307   -3.3824   -3.9875 H   0  0
    0.4418   -5.7068   -4.2296 H   0  0
   -0.1507   -4.7183   -5.5404 H   0  0
    2.1492   -4.0233   -4.8176 H   0  0
    0.9936   -2.7293   -4.6408 H   0  0
    2.3967   -2.8083   -2.6582 H   0  0
    2.0887   -4.5087   -2.4192 H   0  0
    1.0868   -3.1159    2.1628 H   0  0
    1.3500   -5.9484    2.5347 H   0  0
    0.3668   -4.4662    4.2916 H   0  0
    1.6520   -5.4863    4.8691 H   0  0
    1.8922   -2.5136    4.1897 H   0  0
    1.9423   -3.2132    5.7861 H   0  0
    4.2401   -2.6550    4.9114 H   0  0
    4.0683   -4.3456    5.3043 H   0  0
    3.9689   -3.1166    2.5107 H   0  0
    5.2192   -4.1562    3.1394 H   0  0
    3.6528   -6.0647    3.2626 H   0  0
    3.6597   -5.4220    1.6475 H   0  0
   -1.7966    1.4233   -3.2352 H   0  0
   -2.1425   -0.3128   -3.3946 H   0  0
   -0.7163    0.3821   -4.1587 H   0  0
  1  2  1  0
  1 38  1  0
  1 39  1  0
  1 40  1  0
  2  3  1  0
  3  4  2  0
  3 37  1  0
  4  5  1  0
  4 41  1  0
  5  6  2  0
  5 42  1  0
  6  7  1  0
  6 34  1  0
  7  8  2  0
  7 17  1  0
  8  9  1  0
  9 10  2  0
  9 16  1  0
 10 11  1  0
 10 43  1  0
 11 12  1  0
 11 13  2  0
 13 14  1  0
 13 15  1  0
 15 16  2  0
 15 44  1  0
 16 17  1  0
 17 18  1  0
 18 19  1  0
 18 25  1  0
 18 45  1  0
 19 20  1  0
 19 24  1  0
 19 46  1  0
 20 21  1  0
 20 47  1  0
 20 48  1  0
 21 22  1  0
 21 49  1  0
 21 50  1  0
 22 23  1  0
 22 51  1  0
 22 52  1  0
 23 24  1  0
 23 53  1  0
 23 54  1  0
 24 55  1  0
 24 56  1  0
 25 26  2  0
 25 27  1  0
 27 28  1  0
 27 57  1  0
 28 29  1  0
 28 33  1  0
 28 58  1  0
 29 30  1  0
 29 59  1  0
 29 60  1  0
 30 31  1  0
 30 61  1  0
 30 62  1  0
 31 32  1  0
 31 63  1  0
 31 64  1  0
 32 33  1  0
 32 65  1  0
 32 66  1  0
 33 67  1  0
 33 68  1  0
 34 35  1  0
 34 37  2  0
 35 36  1  0
 36 69  1  0
 36 70  1  0
 36 71  1  0
M  END
> <Name>
ligand_8

> <activity>
1

$$$$
ligand_9
  SciTegic10272118463D

 39 40  0  0  1  0            999 V2000
    3.8288    4.2505   -4.1557 Cl  0  0
    7.6474    0.7679   -5.8720 Cl  0  0
    6.2707    5.0110   -8.9070 Cl  0  0
    4.7081    1.6542   -1.2934 O   0  0
    5.6038    1.8505   -3.9719 O   0  0
    7.2975    3.1880   -0.1380 N   0  3
    8.4569    3.2791    0.8867 C   0  0
    6.0506    3.9818    0.3305 C   0  0
    8.8171    4.7546    1.1294 C   0  0
    6.4394    5.4474    0.5933 C   0  0
    7.6008    5.5708    1.5907 C   0  0
    6.9791    1.6887   -0.4031 C   0  0
    6.0647    1.4344   -1.6311 C   0  0  2  0  0  0
    6.4272    2.2593   -2.8834 C   0  0
    5.7671    2.5918   -5.1171 C   0  0
    4.9909    3.7397   -5.3298 C   0  0
    6.6904    2.1906   -6.0926 C   0  0
    5.1504    4.4847   -6.4992 C   0  0
    6.8445    2.9405   -7.2596 C   0  0
    6.0769    4.0870   -7.4627 C   0  0
    4.1722    1.4877   -2.0740 H   0  0
    8.1181    2.7854    1.7997 H   0  0
    9.3046    2.7318    0.4711 H   0  0
    5.3038    3.9313   -0.4599 H   0  0
    5.6709    3.4862    1.2258 H   0  0
    9.6089    4.8193    1.8769 H   0  0
    9.2285    5.1858    0.2153 H   0  0
    6.7095    5.9258   -0.3494 H   0  0
    5.5724    5.9922    0.9694 H   0  0
    7.2781    5.2257    2.5746 H   0  0
    7.8786    6.6188    1.7124 H   0  0
    7.9472    1.2136   -0.5717 H   0  0
    6.5609    1.2931    0.5250 H   0  0
    6.1579    0.3779   -1.8881 H   0  0
    6.3079    3.3273   -2.6893 H   0  0
    7.4757    2.0964   -3.1403 H   0  0
    4.5533    5.3707   -6.6606 H   0  0
    7.5583    2.6315   -8.0095 H   0  0
    7.6246    3.5975   -1.0021 H   0  0
  1 16  1  0
  2 17  1  0
  3 20  1  0
  4 13  1  0
  4 21  1  0
  5 14  1  0
  5 15  1  0
  6  7  1  0
  6  8  1  0
  6 12  1  0
  6 39  1  0
  7  9  1  0
  7 22  1  0
  7 23  1  0
  8 10  1  0
  8 24  1  0
  8 25  1  0
  9 11  1  0
  9 26  1  0
  9 27  1  0
 10 11  1  0
 10 28  1  0
 10 29  1  0
 11 30  1  0
 11 31  1  0
 12 13  1  0
 12 32  1  0
 12 33  1  0
 13 14  1  0
 13 34  1  0
 14 35  1  0
 14 36  1  0
 15 16  2  0
 15 17  1  0
 16 18  1  0
 17 19  2  0
 18 20  2  0
 18 37  1  0
 19 20  1  0
 19 38  1  0
M  CHG  1   6   1
M  END
> <Name>
ligand_9

> <activity>
1

$$$$
ligand_10
  SciTegic10272118463D

 56 59  0  0  1  0            999 V2000
    5.8664    2.4961    3.3436 S   0  0
    3.6570   -0.3763   -2.0654 F   0  0
    3.0585    1.4603    1.7831 O   0  0
    6.7621    3.2178    0.7791 N   0  0
   10.0578    2.8113   -1.3758 N   0  0
    8.2041    4.8230    1.2920 N   0  0
    7.6630    4.3290    2.4716 N   0  0
    2.3684    1.9168    3.9192 N   0  0
    8.0363    4.3619   -1.1580 C   0  0
    9.5057    4.0812   -1.4292 C   0  0
    7.6687    4.1484    0.3042 C   0  0
   10.5343    4.9571   -1.7619 C   0  0
    5.9784    2.3032    0.0482 C   0  0
    6.8039    3.3948    2.1504 C   0  0
   11.3996    2.9078   -1.6648 C   0  0
   11.7144    4.2302   -1.9078 C   0  0
    9.3611    1.5711   -1.0686 C   0  0
    6.1036    0.9327    0.2936 C   0  0
    5.0706    2.7737   -0.9048 C   0  0
    1.3155    0.9961    4.1041 C   0  0
    0.3015    1.3246    5.0228 C   0  0
    4.2221    3.1785    2.9577 C   0  0
   -0.7829   -0.7938    4.5653 C   0  0
   -0.7438    0.4247    5.2421 C   0  0
    3.1573    2.0888    2.8372 C   0  0
    5.3209    0.0307   -0.4219 C   0  0
    4.2894    1.8676   -1.6169 C   0  0
    1.2771   -0.2416    3.4417 C   0  0
    0.2304   -1.1284    3.6694 C   0  0
    4.4174    0.5013   -1.3729 C   0  0
    0.3058    2.6450    5.7865 C   0  0
   -1.9230   -1.7639    4.8180 C   0  0
    2.5084    2.5546    4.6883 H   0  0
    7.4292    3.7485   -1.8220 H   0  0
    7.7940    5.3863   -1.4423 H   0  0
   10.4351    6.0257   -1.8834 H   0  0
   12.0196    2.0231   -1.6737 H   0  0
   12.6873    4.6250   -2.1613 H   0  0
    9.9905    0.7144   -1.3125 H   0  0
    9.1302    1.5447   -0.0035 H   0  0
    8.4408    1.5101   -1.6499 H   0  0
    6.8010    0.5665    1.0334 H   0  0
    4.9644    3.8331   -1.0898 H   0  0
    3.9661    3.9402    3.6949 H   0  0
    4.2496    3.7202    2.0117 H   0  0
   -1.5296    0.6699    5.9424 H   0  0
    5.4100   -1.0296   -0.2380 H   0  0
    3.5835    2.2215   -2.3536 H   0  0
    2.0572   -0.5416    2.7588 H   0  0
    0.2135   -2.0770    3.1525 H   0  0
   -0.5728    2.7531    6.4239 H   0  0
    1.1879    2.7125    6.4241 H   0  0
    0.3158    3.4866    5.0931 H   0  0
   -2.1004   -2.4024    3.9516 H   0  0
   -1.6897   -2.4027    5.6702 H   0  0
   -2.8511   -1.2328    5.0331 H   0  0
  1 14  1  0
  1 22  1  0
  2 30  1  0
  3 25  2  0
  4 11  1  0
  4 13  1  0
  4 14  1  0
  5 10  1  0
  5 15  1  0
  5 17  1  0
  6  7  1  0
  6 11  2  0
  7 14  2  0
  8 20  1  0
  8 25  1  0
  8 33  1  0
  9 10  1  0
  9 11  1  0
  9 34  1  0
  9 35  1  0
 10 12  2  0
 12 16  1  0
 12 36  1  0
 13 18  2  0
 13 19  1  0
 15 16  2  0
 15 37  1  0
 16 38  1  0
 17 39  1  0
 17 40  1  0
 17 41  1  0
 18 26  1  0
 18 42  1  0
 19 27  2  0
 19 43  1  0
 20 21  2  0
 20 28  1  0
 21 24  1  0
 21 31  1  0
 22 25  1  0
 22 44  1  0
 22 45  1  0
 23 24  2  0
 23 29  1  0
 23 32  1  0
 24 46  1  0
 26 30  2  0
 26 47  1  0
 27 30  1  0
 27 48  1  0
 28 29  2  0
 28 49  1  0
 29 50  1  0
 31 51  1  0
 31 52  1  0
 31 53  1  0
 32 54  1  0
 32 55  1  0
 32 56  1  0
M  END
> <Name>
ligand_10

> <activity>
1

$$$$
ligand_11
  SciTegic10272118463D

 58 62  0  0  1  0            999 V2000
    4.5435    2.7697    1.2836 O   0  0
    2.9641    3.3487    4.4404 O   0  0
    5.1744    4.9257    0.9533 N   0  0
    6.3295    6.5136   -1.0865 N   0  0
    2.0682    3.2627    2.3070 N   0  0
    1.2556    2.7003    1.3265 N   0  0
    8.6766    7.0254   -1.2560 N   0  3
    2.1976   -1.1005   -1.4884 N   0  0
    6.4973    4.5508    0.4090 C   0  0
    4.8677    6.3714    0.9035 C   0  0
    4.9671    6.8014   -0.5809 C   0  0
    6.5431    5.0469   -1.0578 C   0  0
    4.2826    3.9743    1.3423 C   0  0
    7.4190    7.4541   -1.0222 C   0  0
    2.8934    4.4133    1.8694 C   0  0
    0.5293    1.6792    1.5908 C   0  0
    7.2352    8.8163   -0.7408 C   0  0
    2.2080    2.8280    3.6142 C   0  0
    0.4925    1.0617    2.9292 C   0  0
    1.3186    1.6274    3.9155 C   0  0
   -0.2598    1.0947    0.4144 C   0  0
    8.3250    9.6847   -0.6983 C   0  0
   -0.3109   -0.0318    3.2573 C   0  0
    1.3326    1.0882    5.2027 C   0  0
    9.7551    7.8262   -1.2257 C   0  0
    0.3860   -0.1420   -0.2047 C   0  0
    9.5984    9.1799   -0.9434 C   0  0
   -0.2890   -0.5600    4.5413 C   0  0
    0.5313   -0.0024    5.5115 C   0  0
   -0.2223   -1.3974   -0.1009 C   0  0
    1.5887   -0.0369   -0.9122 C   0  0
    0.3895   -2.5028   -0.6871 C   0  0
    1.5917   -2.3067   -1.3649 C   0  0
    7.2779    5.0323    0.9997 H   0  0
    6.6867    3.4770    0.4517 H   0  0
    3.8872    6.6295    1.3005 H   0  0
    5.5999    6.9129    1.5042 H   0  0
    4.7240    7.8544   -0.7042 H   0  0
    4.2495    6.2544   -1.1954 H   0  0
    5.7672    4.5701   -1.6598 H   0  0
    7.4938    4.7933   -1.5251 H   0  0
    3.0174    5.1427    2.6728 H   0  0
    2.3712    4.9510    1.0756 H   0  0
    6.2569    9.2277   -0.5501 H   0  0
   -1.2826    0.8723    0.7210 H   0  0
   -0.3677    1.8367   -0.3801 H   0  0
    8.1830   10.7333   -0.4798 H   0  0
   -0.9629   -0.4880    2.5289 H   0  0
    1.9622    1.5076    5.9753 H   0  0
   10.7056    7.3540   -1.4302 H   0  0
   10.4576    9.8346   -0.9164 H   0  0
   -0.9129   -1.4072    4.7857 H   0  0
    0.5454   -0.4163    6.5091 H   0  0
   -1.1582   -1.5193    0.4243 H   0  0
    2.0880    0.9153   -1.0205 H   0  0
   -0.0565   -3.4841   -0.6202 H   0  0
    2.0952   -3.1403   -1.8325 H   0  0
    8.8115    6.0474   -1.4677 H   0  0
  1 13  2  0
  2 18  2  0
  3  9  1  0
  3 10  1  0
  3 13  1  0
  4 11  1  0
  4 12  1  0
  4 14  1  0
  5  6  1  0
  5 15  1  0
  5 18  1  0
  6 16  2  0
  7 14  2  0
  7 25  1  0
  7 58  1  0
  8 31  2  0
  8 33  1  0
  9 12  1  0
  9 34  1  0
  9 35  1  0
 10 11  1  0
 10 36  1  0
 10 37  1  0
 11 38  1  0
 11 39  1  0
 12 40  1  0
 12 41  1  0
 13 15  1  0
 14 17  1  0
 15 42  1  0
 15 43  1  0
 16 19  1  0
 16 21  1  0
 17 22  2  0
 17 44  1  0
 18 20  1  0
 19 20  1  0
 19 23  2  0
 20 24  2  0
 21 26  1  0
 21 45  1  0
 21 46  1  0
 22 27  1  0
 22 47  1  0
 23 28  1  0
 23 48  1  0
 24 29  1  0
 24 49  1  0
 25 27  2  0
 25 50  1  0
 26 30  2  0
 26 31  1  0
 27 51  1  0
 28 29  2  0
 28 52  1  0
 29 53  1  0
 30 32  1  0
 30 54  1  0
 31 55  1  0
 32 33  2  0
 32 56  1  0
 33 57  1  0
M  CHG  1   7   1
M  END
> <Name>
ligand_11

> <activity>
1

$$$$
ligand_12
  SciTegic10272118463D

 46 48  0  0  1  0            999 V2000
    2.8527    2.6964    0.7883 S   0  0
    6.2834    6.6190    0.5779 O   0  0
    8.5391    1.8251   -0.8199 O   0  0
    9.3962    3.5153    0.4401 O   0  0
    1.7826    2.4179   -0.1754 O   0  0
    2.5471    3.3791    2.0515 O   0  0
    3.6151    1.1523    1.1875 N   0  0
    4.1146    3.6550   -0.0821 C   0  0
    4.6032    3.2820   -1.3486 C   0  0
    4.6483    1.1264    2.2496 C   0  0
    5.9585    1.7730    1.8202 C   0  0
    4.6530    4.7787    0.5555 C   0  0
    6.1719    5.1396   -1.2843 C   0  0
    5.6904    5.5242   -0.0266 C   0  0
    5.6236    4.0338   -1.9367 C   0  0
    6.6035    1.3510    0.6458 C   0  0
    7.7621    2.0187    0.2766 C   0  0
    4.0672    2.0763   -2.1095 C   0  0
    6.5053    2.8025    2.6085 C   0  0
    8.2740    3.0319    1.0335 C   0  0
    7.6810    3.4508    2.2172 C   0  0
    7.3041    5.9123   -1.9441 C   0  0
    9.5277    2.8184   -0.7703 C   0  0
    5.8960    6.9936    1.8962 C   0  0
    6.7539    8.1822    2.3379 C   0  0
    3.8936    0.6282    0.3543 H   0  0
    4.2428    1.5844    3.1530 H   0  0
    4.8559    0.0820    2.4844 H   0  0
    4.2747    5.0518    1.5277 H   0  0
    6.0060    3.7480   -2.9062 H   0  0
    6.1956    0.5568    0.0384 H   0  0
    4.6752    1.8458   -2.9853 H   0  0
    4.0573    1.1839   -1.4859 H   0  0
    3.0525    2.2684   -2.4586 H   0  0
    6.0066    3.1180    3.5135 H   0  0
    8.0940    4.2534    2.8099 H   0  0
    8.1884    5.9018   -1.3059 H   0  0
    7.5836    5.4889   -2.9095 H   0  0
    7.0107    6.9502   -2.1043 H   0  0
   10.5197    2.3715   -0.8455 H   0  0
    9.4133    3.5031   -1.6119 H   0  0
    4.8410    7.2723    1.9182 H   0  0
    6.0412    6.1622    2.5885 H   0  0
    6.4889    8.5020    3.3458 H   0  0
    7.8129    7.9226    2.3376 H   0  0
    6.6176    9.0338    1.6707 H   0  0
  1  5  2  0
  1  6  2  0
  1  7  1  0
  1  8  1  0
  2 14  1  0
  2 24  1  0
  3 17  1  0
  3 23  1  0
  4 20  1  0
  4 23  1  0
  7 10  1  0
  7 26  1  0
  8  9  2  0
  8 12  1  0
  9 15  1  0
  9 18  1  0
 10 11  1  0
 10 27  1  0
 10 28  1  0
 11 16  2  0
 11 19  1  0
 12 14  2  0
 12 29  1  0
 13 14  1  0
 13 15  2  0
 13 22  1  0
 15 30  1  0
 16 17  1  0
 16 31  1  0
 17 20  2  0
 18 32  1  0
 18 33  1  0
 18 34  1  0
 19 21  2  0
 19 35  1  0
 20 21  1  0
 21 36  1  0
 22 37  1  0
 22 38  1  0
 22 39  1  0
 23 40  1  0
 23 41  1  0
 24 25  1  0
 24 42  1  0
 24 43  1  0
 25 44  1  0
 25 45  1  0
 25 46  1  0
M  END
> <Name>
ligand_12

> <activity>
1

$$$$
ligand_13
  SciTegic10272118463D

 45 47  0  0  1  0            999 V2000
    5.2669    4.2147    0.3972 O   0  0
    6.9004   -2.7977    4.7294 O   0  0
    9.0580    2.9684    2.4537 O   0  0
    7.5387    1.2457    2.3517 N   0  0
    6.3591    4.7507   -0.2782 N   0  0
    7.1003    3.2479    1.2311 C   0  0
    7.4349    4.1844    0.2294 C   0  0
    5.7145    3.3334    1.3228 C   0  0
    8.7825    4.5666   -0.3021 C   0  0
    8.1442    0.2353    3.1204 C   0  0
    7.9940    2.4852    2.0664 C   0  0
    7.8097   -1.8384    4.3269 C   0  0
    7.3064   -0.7852    3.5673 C   0  0
    7.3480   -3.9025    5.5100 C   0  0
    6.1458   -4.8068    5.8174 C   0  0
    9.5107    0.1850    3.4248 C   0  0
    9.7306    3.5893   -0.6049 C   0  0
    9.1065    5.9073   -0.5150 C   0  0
    4.6502    2.6947    2.1883 C   0  0
    9.1775   -1.8643    4.6315 C   0  0
   10.0257   -0.8601    4.1814 C   0  0
   10.9789    3.9444   -1.1006 C   0  0
   10.3545    6.2630   -1.0113 C   0  0
    6.5186   -6.0352    6.6591 C   0  0
   11.2919    5.2815   -1.3034 C   0  0
    6.6255    1.0112    1.9930 H   0  0
    6.2514   -0.7673    3.3331 H   0  0
    8.1064   -4.4669    4.9638 H   0  0
    7.7941   -3.5492    6.4417 H   0  0
    5.3829   -4.2296    6.3416 H   0  0
    5.6915   -5.1362    4.8819 H   0  0
   10.1979    0.9388    3.0740 H   0  0
    9.5023    2.5436   -0.4581 H   0  0
    8.3880    6.6827   -0.2908 H   0  0
    5.0648    2.2124    3.0732 H   0  0
    3.9301    3.4323    2.5432 H   0  0
    4.0905    1.9383    1.6382 H   0  0
    9.6047   -2.6641    5.2167 H   0  0
   11.0799   -0.8937    4.4141 H   0  0
   11.7059    3.1790   -1.3294 H   0  0
   10.5955    7.3039   -1.1695 H   0  0
    5.6415   -6.6522    6.8568 H   0  0
    7.2524   -6.6587    6.1471 H   0  0
    6.9405   -5.7431    7.6214 H   0  0
   12.2623    5.5577   -1.6889 H   0  0
  1  5  1  0
  1  8  1  0
  2 12  1  0
  2 14  1  0
  3 11  2  0
  4 10  1  0
  4 11  1  0
  4 26  1  0
  5  7  2  0
  6  7  1  0
  6  8  2  0
  6 11  1  0
  7  9  1  0
  8 19  1  0
  9 17  2  0
  9 18  1  0
 10 13  2  0
 10 16  1  0
 12 13  1  0
 12 20  2  0
 13 27  1  0
 14 15  1  0
 14 28  1  0
 14 29  1  0
 15 24  1  0
 15 30  1  0
 15 31  1  0
 16 21  2  0
 16 32  1  0
 17 22  1  0
 17 33  1  0
 18 23  2  0
 18 34  1  0
 19 35  1  0
 19 36  1  0
 19 37  1  0
 20 21  1  0
 20 38  1  0
 21 39  1  0
 22 25  2  0
 22 40  1  0
 23 25  1  0
 23 41  1  0
 24 42  1  0
 24 43  1  0
 24 44  1  0
 25 45  1  0
M  END
> <Name>
ligand_13

> <activity>
1

$$$$
ligand_14
  SciTegic10272118463D

 68 73  0  0  1  0            999 V2000
   19.9044  -14.8993    6.7086 C   0  0
   18.8338  -15.7840    7.3316 C   0  0
   20.3031  -16.0139    7.6386 C   0  0
    8.5369  -11.6759   -0.3925 C   0  0
    8.2516  -12.6546    0.5617 C   0  0
    9.2479  -13.4779    1.0925 C   0  0
    9.8368  -11.4796   -0.8574 C   0  0
   10.8553  -12.2921   -0.3415 C   0  0
   10.5555  -13.2816    0.6250 C   0  0
   11.7740  -13.8892    0.9008 N   0  0
   12.7120  -13.2228    0.1079 C   0  0
   12.1844  -12.2869   -0.6423 N   0  0
   11.9480  -15.0339    1.8293 C   0  0  2  0  0  0
   13.0552  -14.8686    2.8990 C   0  0
   11.8437  -16.4323    1.1194 C   0  0
   14.1228  -15.6923    2.8232 N   0  0
   12.9039  -14.0170    3.7765 O   0  0
   10.3992  -16.7639    0.6576 C   0  0
   10.2822  -18.1813    0.0608 C   0  0
   11.2904  -18.4089   -1.0810 C   0  0
   12.7295  -18.0782   -0.6435 C   0  0
   12.8333  -16.6584   -0.0531 C   0  0
    7.5385  -10.9030   -0.8775 F   0  0
    6.9775  -12.8143    0.9864 F   0  0
   14.1801  -13.4745    0.0505 C   0  0
   15.0106  -13.0113    1.0734 C   0  0
   16.3843  -13.2295    1.0107 C   0  0
   16.9287  -13.8939   -0.0862 C   0  0
   16.1108  -14.3282   -1.1276 C   0  0
   14.7375  -14.1079   -1.0642 C   0  0
   18.6301  -14.1721   -0.1602 Cl  0  0
   15.1371  -15.8632    3.7803 C   0  0
   15.5186  -17.1794    4.0525 C   0  0
   16.5443  -17.4447    4.9582 C   0  0
   17.2190  -16.4056    5.5992 C   0  0
   16.8594  -15.0826    5.3000 C   0  0
   15.8348  -14.8063    4.3943 C   0  0
   18.2309  -16.7625    6.4728 O   0  0
   15.5606  -13.5121    4.1124 F   0  0
   17.9184  -15.2358    8.4601 C   0  0
   18.3450  -14.2811    9.1492 O   0  5
   16.8042  -15.7816    8.6252 O   0  0
   20.1145  -15.0071    5.6443 H   0  0
   20.0148  -13.8694    7.0502 H   0  0
   20.7907  -16.8943    7.2196 H   0  0
   20.6933  -15.7538    8.6235 H   0  0
    9.0035  -14.2284    1.8290 H   0  0
   10.0489  -10.7206   -1.5957 H   0  0
   11.0695  -15.0024    2.4760 H   0  0
   12.0782  -17.1870    1.8739 H   0  0
   14.0789  -16.4077    2.1129 H   0  0
    9.7042  -16.6717    1.4933 H   0  0
   10.0750  -16.0395   -0.0906 H   0  0
   10.4522  -18.9196    0.8461 H   0  0
    9.2670  -18.3510   -0.3001 H   0  0
   11.2332  -19.4405   -1.4303 H   0  0
   11.0187  -17.7835   -1.9330 H   0  0
   13.0610  -18.8058    0.0990 H   0  0
   13.4078  -18.1790   -1.4918 H   0  0
   12.6213  -15.9420   -0.8466 H   0  0
   13.8603  -16.4790    0.2629 H   0  0
   14.5910  -12.4881    1.9207 H   0  0
   17.0220  -12.8842    1.8113 H   0  0
   16.5383  -14.8304   -1.9830 H   0  0
   14.1075  -14.4346   -1.8788 H   0  0
   15.0174  -18.0071    3.5708 H   0  0
   16.8202  -18.4680    5.1663 H   0  0
   17.3766  -14.2535    5.7576 H   0  0
  1  2  1  0
  1  3  1  0
  1 43  1  0
  1 44  1  0
  2  3  1  0
  2 38  1  0
  2 40  1  0
  3 45  1  0
  3 46  1  0
  4  5  2  0
  4  7  1  0
  4 23  1  0
  5  6  1  0
  5 24  1  0
  6  9  2  0
  6 47  1  0
  7  8  2  0
  7 48  1  0
  8  9  1  0
  8 12  1  0
  9 10  1  0
 10 11  1  0
 10 13  1  0
 11 12  2  0
 11 25  1  0
 13 14  1  0
 13 15  1  0
 13 49  1  0
 14 16  1  0
 14 17  2  0
 15 18  1  0
 15 22  1  0
 15 50  1  0
 16 32  1  0
 16 51  1  0
 18 19  1  0
 18 52  1  0
 18 53  1  0
 19 20  1  0
 19 54  1  0
 19 55  1  0
 20 21  1  0
 20 56  1  0
 20 57  1  0
 21 22  1  0
 21 58  1  0
 21 59  1  0
 22 60  1  0
 22 61  1  0
 25 26  2  0
 25 30  1  0
 26 27  1  0
 26 62  1  0
 27 28  2  0
 27 63  1  0
 28 29  1  0
 28 31  1  0
 29 30  2  0
 29 64  1  0
 30 65  1  0
 32 33  2  0
 32 37  1  0
 33 34  1  0
 33 66  1  0
 34 35  2  0
 34 67  1  0
 35 36  1  0
 35 38  1  0
 36 37  2  0
 36 68  1  0
 37 39  1  0
 40 41  1  0
 40 42  2  0
M  CHG  1  41  -1
M  END
> <Name>
ligand_14

> <activity>
1

$$$$
ligand_15
  SciTegic10272118463D

 46 49  0  0  1  0            999 V2000
    8.2287   -2.5314   -2.5920 S   0  0
    5.7127    0.0082    0.6801 O   0  0
    7.5002    0.3658   -1.7204 N   0  0
    3.2960    1.7326    0.6286 N   0  0
    3.1219    1.1432    1.8219 N   0  0
    5.4578    0.9560   -0.3422 C   0  0  2  0  0  0
    6.8057    1.4281   -0.9472 C   0  0
    4.6448    2.1394    0.2317 C   0  0
    6.8630   -0.1285   -2.8800 C   0  0
    8.7027   -0.1664   -1.2072 C   0  0
    9.1208   -1.4758   -1.5082 C   0  0
    7.1069   -1.4248   -3.3673 C   0  0
    2.1319    1.8265   -0.1010 C   0  0
    9.5454    0.5911   -0.3756 C   0  0
    5.9350    0.6533   -3.5899 C   0  0
    1.1777    1.2688    0.7325 C   0  0
    1.8403    0.8664    1.8971 C   0  0
    6.4346   -1.8987   -4.4909 C   0  0
   10.2827   -1.9980   -0.9456 C   0  0
    2.0478    2.4193   -1.4905 C   0  0
   10.7083    0.0682    0.1702 C   0  0
    5.2758    0.1772   -4.7132 C   0  0
   11.0741   -1.2354   -0.1052 C   0  0
    5.5233   -1.1051   -5.1652 C   0  0
    1.2807    0.1969    3.1292 C   0  0
    4.8842   -0.1828    1.1289 H   0  0
    4.8497    0.4727   -1.1080 H   0  0
    7.3810    1.8255   -0.1163 H   0  0
    6.6593    2.2985   -1.5855 H   0  0
    5.1475    2.5879    1.0909 H   0  0
    4.5553    2.9306   -0.5132 H   0  0
    9.3431    1.6248   -0.1483 H   0  0
    5.7007    1.6620   -3.2904 H   0  0
    0.1243    1.1586    0.5215 H   0  0
    6.6224   -2.9000   -4.8513 H   0  0
   10.5860   -3.0102   -1.1719 H   0  0
    2.3197    3.4749   -1.4966 H   0  0
    2.7117    1.9081   -2.1883 H   0  0
    1.0395    2.3477   -1.8988 H   0  0
   11.3302    0.6809    0.8063 H   0  0
    4.5689    0.8069   -5.2333 H   0  0
   11.9771   -1.6499    0.3184 H   0  0
    5.0113   -1.4840   -6.0376 H   0  0
    0.2066    0.0290    3.0481 H   0  0
    1.7433   -0.7745    3.3052 H   0  0
    1.4431    0.7991    4.0235 H   0  0
  1 11  1  0
  1 12  1  0
  2  6  1  0
  2 26  1  0
  3  7  1  0
  3  9  1  0
  3 10  1  0
  4  5  1  0
  4  8  1  0
  4 13  1  0
  5 17  2  0
  6  7  1  0
  6  8  1  0
  6 27  1  0
  7 28  1  0
  7 29  1  0
  8 30  1  0
  8 31  1  0
  9 12  2  0
  9 15  1  0
 10 11  2  0
 10 14  1  0
 11 19  1  0
 12 18  1  0
 13 16  2  0
 13 20  1  0
 14 21  2  0
 14 32  1  0
 15 22  2  0
 15 33  1  0
 16 17  1  0
 16 34  1  0
 17 25  1  0
 18 24  2  0
 18 35  1  0
 19 23  2  0
 19 36  1  0
 20 37  1  0
 20 38  1  0
 20 39  1  0
 21 23  1  0
 21 40  1  0
 22 24  1  0
 22 41  1  0
 23 42  1  0
 24 43  1  0
 25 44  1  0
 25 45  1  0
 25 46  1  0
M  END
> <Name>
ligand_15

> <activity>
1

$$$$
ligand_16
  SciTegic10272118463D

 60 64  0  0  1  0            999 V2000
    1.1227    2.3501    0.8906 N   0  0
    0.6668    2.7976    2.1256 C   0  0
    1.0223    4.0297    2.3954 N   0  0
    1.8379    3.4070    0.3422 C   0  0
    1.7549    4.4322    1.3162 C   0  0
    2.1687    0.2707   -0.0150 C   0  0
    2.7846   -0.2545    1.0631 N   0  0
    4.0026   -0.9398    1.0078 C   0  0
    0.8533    1.0388    0.2616 C   0  0  2  0  0  0
    2.5274    3.5917   -0.8639 C   0  0
    5.2062   -0.2391    1.1421 C   0  0
    4.0194   -2.3287    0.8413 C   0  0
    6.4560   -2.3209    0.9237 C   0  0
    2.3781    5.6668    1.0907 C   0  0
    7.7641   -3.0572    0.8772 C   0  0
    3.1391    4.8320   -1.0624 C   0  0
   -0.1706    2.0032    3.0691 C   0  0
    3.0683    5.8487   -0.1075 C   0  0
    5.2368   -3.0079    0.7977 C   0  0
    6.4186   -0.9270    1.0971 C   0  0
    2.6171    0.1887   -1.1612 O   0  0
    8.8178   -2.3906    0.9974 O   0  0
   -0.1128    1.1838   -0.9683 C   0  0
   -1.4567    2.4480    3.3881 C   0  0
    0.3265    0.8315    3.6471 C   0  0
    2.8643   -3.0259    0.7225 F   0  0
    5.2095    1.1042    1.3164 F   0  0
    3.8163    5.0499   -2.2127 F   0  0
    3.6764    7.0332   -0.3454 F   0  0
    7.7333   -4.2998    0.7220 O   0  5
   -1.7515    0.5416    4.8319 C   0  0
   -0.4659    0.0983    4.5264 C   0  0
   -2.2491    1.7147    4.2673 C   0  0
   -2.7337   -0.3675    5.9214 Cl  0  0
   -0.5615   -0.1936   -1.5396 C   0  0
   -1.3706    2.0462   -0.6537 C   0  0
   -1.5176   -0.0634   -2.7416 C   0  0
   -2.3294    2.1741   -1.8537 C   0  0
   -2.7453    0.7999   -2.4052 C   0  0
    2.3648   -0.1406    1.9727 H   0  0
    0.3116    0.4368    0.9905 H   0  0
    2.5943    2.8188   -1.6149 H   0  0
    2.3257    6.4599    1.8217 H   0  0
    5.2220   -4.0807    0.6654 H   0  0
    7.3342   -0.3615    1.2006 H   0  0
    0.4302    1.6995   -1.7628 H   0  0
   -1.8435    3.3576    2.9511 H   0  0
    1.3261    0.4913    3.4221 H   0  0
   -0.0823   -0.8082    4.9714 H   0  0
   -3.2447    2.0563    4.5099 H   0  0
    0.2983   -0.7871   -1.8499 H   0  0
   -1.0532   -0.7696   -0.7540 H   0  0
   -1.9076    1.6116    0.1912 H   0  0
   -1.0825    3.0508   -0.3426 H   0  0
   -0.9820    0.3786   -3.5834 H   0  0
   -1.8382   -1.0524   -3.0711 H   0  0
   -3.2147    2.7416   -1.5641 H   0  0
   -1.8445    2.7499   -2.6436 H   0  0
   -3.3687    0.9253   -3.2913 H   0  0
   -3.3623    0.2836   -1.6681 H   0  0
  1  2  1  0
  1  4  1  0
  1  9  1  0
  2  3  2  0
  2 17  1  0
  3  5  1  0
  4  5  1  0
  4 10  2  0
  5 14  2  0
  6  7  1  0
  6  9  1  0
  6 21  2  0
  7  8  1  0
  7 40  1  0
  8 11  2  0
  8 12  1  0
  9 23  1  0
  9 41  1  0
 10 16  1  0
 10 42  1  0
 11 20  1  0
 11 27  1  0
 12 19  2  0
 12 26  1  0
 13 15  1  0
 13 19  1  0
 13 20  2  0
 14 18  1  0
 14 43  1  0
 15 22  2  0
 15 30  1  0
 16 18  2  0
 16 28  1  0
 17 24  2  0
 17 25  1  0
 18 29  1  0
 19 44  1  0
 20 45  1  0
 23 35  1  0
 23 36  1  0
 23 46  1  0
 24 33  1  0
 24 47  1  0
 25 32  2  0
 25 48  1  0
 31 32  1  0
 31 33  2  0
 31 34  1  0
 32 49  1  0
 33 50  1  0
 35 37  1  0
 35 51  1  0
 35 52  1  0
 36 38  1  0
 36 53  1  0
 36 54  1  0
 37 39  1  0
 37 55  1  0
 37 56  1  0
 38 39  1  0
 38 57  1  0
 38 58  1  0
 39 59  1  0
 39 60  1  0
M  CHG  1  30  -1
M  END
> <Name>
ligand_16

> <activity>
1

$$$$
ligand_17
  SciTegic10272118463D

 72 76  0  0  1  0            999 V2000
   20.5158   -2.2940   -0.0212 C   0  0
   14.6055   -6.9848    1.4919 C   0  0
   17.4433   -7.1204   -0.9824 C   0  0
   18.8638   -5.2345   -1.4955 C   0  0
   14.8081   -3.9986   -0.4876 C   0  0
   13.8858   -7.4077    0.1925 C   0  0
   13.1764   -5.6623   -2.2667 O   0  0
   18.2564   -6.0739   -0.5576 C   0  0
   17.8460   -6.4988   -3.2855 C   0  0
   11.7367   -6.7670    1.2685 C   0  0
   18.0811   -2.7197    0.4640 C   0  0
   11.4214   -2.9676    0.9980 C   0  0
   11.0651   -4.8992   -1.0926 O   0  0
   17.0041   -3.1308   -0.2380 N   0  0
   13.4362   -4.0156   -0.2208 C   0  0
   18.0527   -2.1592    1.5607 O   0  0
   20.9549   -3.9972   -1.4226 N   0  0
   19.6984   -4.0861   -1.0339 C   0  0
   23.7722   -3.3469   -0.0488 C   0  0
   17.2316   -7.3286   -2.3462 C   0  0
   13.7307   -7.1145    2.6131 O   0  0
   16.3222   -8.4512   -2.8115 C   0  0
   12.5391   -6.3348    2.5119 C   0  0
   12.4692   -5.3193   -1.0264 S   0  0
   12.9028   -3.0469    0.6552 C   0  0
   15.1114   -2.0997    0.9740 C   0  0
   21.4471   -2.9160   -0.8069 N   0  0
   22.8504   -2.5652   -0.9740 C   0  0
   18.6657   -5.4562   -2.8610 C   0  0
   13.7475   -2.0987    1.2407 C   0  0
   15.6467   -3.0598    0.1099 C   0  0
   12.5681   -6.7413    0.0409 N   0  0
   19.3333   -2.9981   -0.1953 C   0  0
   24.3580   -4.5382   -0.4789 C   0  0
   25.1977   -5.2628    0.3620 C   0  0
   25.4559   -4.7954    1.6470 C   0  0
   24.8792   -3.6078    2.0991 C   0  0
   24.0342   -2.8840    1.2418 C   0  0
   25.1916   -3.2260    3.3897 O   0  0
   24.6289   -2.0294    3.9171 C   0  0
   20.7671   -1.4204    0.5624 H   0  0
   15.4810   -7.6114    1.6612 H   0  0
   14.9540   -5.9535    1.4353 H   0  0
   16.9757   -7.7633   -0.2517 H   0  0
   15.2320   -4.7366   -1.1547 H   0  0
   14.4939   -7.2036   -0.6882 H   0  0
   13.7060   -8.4832    0.1965 H   0  0
   18.4064   -5.9109    0.5001 H   0  0
   17.6856   -6.6562   -4.3423 H   0  0
   11.3766   -7.7887    1.3934 H   0  0
   10.8500   -6.1526    1.1193 H   0  0
   11.0386   -3.9298    1.3312 H   0  0
   11.2247   -2.2552    1.8003 H   0  0
   10.8481   -2.6423    0.1296 H   0  0
   17.1977   -3.6230   -1.0979 H   0  0
   15.3326   -8.0574   -3.0459 H   0  0
   16.7208   -8.9303   -3.7066 H   0  0
   16.2091   -9.2195   -2.0455 H   0  0
   12.8089   -5.2793    2.4627 H   0  0
   11.9457   -6.4768    3.4153 H   0  0
   15.7299   -1.3423    1.4310 H   0  0
   23.1312   -2.7269   -2.0166 H   0  0
   22.9628   -1.4941   -0.7981 H   0  0
   19.1321   -4.8115   -3.5920 H   0  0
   13.3488   -1.3470    1.9067 H   0  0
   24.1583   -4.9103   -1.4735 H   0  0
   25.6454   -6.1842    0.0194 H   0  0
   26.1071   -5.3592    2.2989 H   0  0
   23.5726   -1.9636    1.5659 H   0  0
   24.9787   -1.8883    4.9397 H   0  0
   24.9353   -1.1549    3.3410 H   0  0
   23.5392   -2.0779    3.9458 H   0  0
  1 27  1  0
  1 33  2  0
  1 41  1  0
  2  6  1  0
  2 21  1  0
  2 42  1  0
  2 43  1  0
  3  8  1  0
  3 20  2  0
  3 44  1  0
  4 18  1  0
  4  8  2  0
  4 29  1  0
  5 15  1  0
  5 31  2  0
  5 45  1  0
  6 32  1  0
  6 46  1  0
  6 47  1  0
  7 24  2  0
  8 48  1  0
  9 29  2  0
  9 20  1  0
  9 49  1  0
 10 23  1  0
 10 32  1  0
 10 50  1  0
 10 51  1  0
 11 16  2  0
 11 14  1  0
 11 33  1  0
 12 25  1  0
 12 52  1  0
 12 53  1  0
 12 54  1  0
 13 24  2  0
 14 31  1  0
 14 55  1  0
 15 25  2  0
 15 24  1  0
 17 18  2  0
 17 27  1  0
 18 33  1  0
 19 28  1  0
 19 34  2  0
 19 38  1  0
 20 22  1  0
 21 23  1  0
 22 56  1  0
 22 57  1  0
 22 58  1  0
 23 59  1  0
 23 60  1  0
 24 32  1  0
 25 30  1  0
 26 30  2  0
 26 31  1  0
 26 61  1  0
 27 28  1  0
 28 62  1  0
 28 63  1  0
 29 64  1  0
 30 65  1  0
 34 35  1  0
 34 66  1  0
 35 36  2  0
 35 67  1  0
 36 37  1  0
 36 68  1  0
 37 38  2  0
 37 39  1  0
 38 69  1  0
 39 40  1  0
 40 70  1  0
 40 71  1  0
 40 72  1  0
M  END
> <Name>
ligand_17

> <activity>
1

$$$$
ligand_18
  SciTegic10272118463D

 82 86  0  0  1  0            999 V2000
    1.4699    1.0360    1.7380 C   0  0
    1.9061    0.4918    0.3538 C   0  0  2  0  0  0
    1.2375   -0.8713    0.0419 C   0  0
   -0.2974   -0.8065   -0.1447 C   0  0
   -0.9115   -2.1542   -0.5533 C   0  0
   -0.4396   -2.7652   -1.5131 O   0  0
   -1.9741   -2.5597    0.1753 N   0  0
   -2.7294   -3.7407    0.0534 C   0  0
   -4.0196   -3.7126    0.5848 C   0  0
   -4.8548   -4.8382    0.5320 C   0  0
   -4.3567   -6.0082   -0.0634 C   0  0
   -3.0572   -6.0738   -0.5920 C   0  0
   -2.2511   -4.9268   -0.5226 C   0  0
   -2.5416   -7.3425   -1.2106 C   0  0
   -3.3096   -8.3313   -1.2523 O   0  0
   -1.3696   -7.3502   -1.6528 O   0  5
   -6.2448   -4.7923    1.0998 C   0  0
   -6.6325   -3.7216    1.6222 O   0  0
   -6.9468   -5.8269    1.0232 O   0  5
    3.4460    0.4925    0.0510 C   0  0  1  0  0  0
    4.1463    1.8774    0.1575 C   0  0
    5.6123    1.6078    0.5396 C   0  0
    5.7783    0.1043    0.3086 C   0  0  1  0  0  0
    7.0272   -0.6264    0.8653 C   0  0  2  0  0  0
    8.3470    0.0706    0.4636 C   0  0
    9.5893   -0.7068    0.9351 C   0  0
    9.5794   -2.1887    0.4843 C   0  0  2  0  0  0
    9.8929   -2.3088   -1.0347 C   0  0
    9.8929   -3.7626   -1.5394 C   0  0  2  0  0  0
   10.1236   -3.8116   -2.9321 O   0  0
    8.5800   -4.4749   -1.1758 C   0  0
    8.3086   -4.3931    0.3378 C   0  0
    8.2638   -2.9399    0.9149 C   0  0  1  0  0  0
    8.2354   -3.0915    2.4641 C   0  0
    7.0068   -2.1276    0.4102 C   0  0  1  0  0  0
    5.6243   -2.8025    0.6763 C   0  0
    4.4104   -1.9689    0.1912 C   0  0
    4.4235   -0.5166    0.7426 C   0  0  2  0  0  0
    4.2233   -0.5367    2.2865 C   0  0
    1.6251    0.3164    2.5391 H   0  0
    0.4062    1.2733    1.7418 H   0  0
    1.9797    1.9549    2.0179 H   0  0
    1.4952    1.1980   -0.3705 H   0  0
    1.6830   -1.2788   -0.8678 H   0  0
    1.4707   -1.5785    0.8388 H   0  0
   -0.7703   -0.4437    0.7690 H   0  0
   -0.5432   -0.0862   -0.9259 H   0  0
   -2.3046   -1.9210    0.8831 H   0  0
   -4.3779   -2.7987    1.0395 H   0  0
   -4.9893   -6.8848   -0.1103 H   0  0
   -1.2426   -4.9711   -0.9058 H   0  0
    3.4956    0.2471   -1.0133 H   0  0
    4.0841    2.4039   -0.7963 H   0  0
    3.7001    2.5357    0.8997 H   0  0
    6.3075    2.2007   -0.0564 H   0  0
    5.7871    1.8526    1.5884 H   0  0
    5.8592   -0.0029   -0.7777 H   0  0
    6.9802   -0.5835    1.9518 H   0  0
    8.3826    0.1965   -0.6192 H   0  0
    8.3800    1.0779    0.8804 H   0  0
   10.4915   -0.2096    0.5761 H   0  0
    9.6499   -0.6546    2.0225 H   0  0
   10.4154   -2.6708    0.9955 H   0  0
    9.1687   -1.7357   -1.6143 H   0  0
   10.8635   -1.8562   -1.2442 H   0  0
   10.7254   -4.2949   -1.0761 H   0  0
   10.1294   -4.7309   -3.2083 H   0  0
    7.7464   -4.0388   -1.7280 H   0  0
    8.6279   -5.5216   -1.4794 H   0  0
    7.3973   -4.9408    0.5762 H   0  0
    9.1007   -4.9527    0.8396 H   0  0
    7.3903   -3.6928    2.7993 H   0  0
    9.1342   -3.5885    2.8315 H   0  0
    8.1739   -2.1386    2.9865 H   0  0
    7.0807   -2.0947   -0.6774 H   0  0
    5.5762   -3.7718    0.1814 H   0  0
    5.5070   -3.0096    1.7390 H   0  0
    4.4087   -1.9527   -0.9000 H   0  0
    3.4956   -2.4856    0.4775 H   0  0
    3.3172   -1.0782    2.5546 H   0  0
    4.1488    0.4659    2.7078 H   0  0
    5.0308   -1.0392    2.8155 H   0  0
  1  2  1  0
  1 40  1  0
  1 41  1  0
  1 42  1  0
  2  3  1  0
  2 20  1  0
  2 43  1  0
  3  4  1  0
  3 44  1  0
  3 45  1  0
  4  5  1  0
  4 46  1  0
  4 47  1  0
  5  6  2  0
  5  7  1  0
  7  8  1  0
  7 48  1  0
  8  9  2  0
  8 13  1  0
  9 10  1  0
  9 49  1  0
 10 11  2  0
 10 17  1  0
 11 12  1  0
 11 50  1  0
 12 13  2  0
 12 14  1  0
 13 51  1  0
 14 15  2  0
 14 16  1  0
 17 18  2  0
 17 19  1  0
 20 21  1  0
 20 38  1  0
 20 52  1  0
 21 22  1  0
 21 53  1  0
 21 54  1  0
 22 23  1  0
 22 55  1  0
 22 56  1  0
 23 24  1  0
 23 38  1  0
 23 57  1  0
 24 25  1  0
 24 35  1  0
 24 58  1  0
 25 26  1  0
 25 59  1  0
 25 60  1  0
 26 27  1  0
 26 61  1  0
 26 62  1  0
 27 28  1  0
 27 33  1  0
 27 63  1  0
 28 29  1  0
 28 64  1  0
 28 65  1  0
 29 30  1  0
 29 31  1  0
 29 66  1  0
 30 67  1  0
 31 32  1  0
 31 68  1  0
 31 69  1  0
 32 33  1  0
 32 70  1  0
 32 71  1  0
 33 34  1  0
 33 35  1  0
 34 72  1  0
 34 73  1  0
 34 74  1  0
 35 36  1  0
 35 75  1  0
 36 37  1  0
 36 76  1  0
 36 77  1  0
 37 38  1  0
 37 78  1  0
 37 79  1  0
 38 39  1  0
 39 80  1  0
 39 81  1  0
 39 82  1  0
M  CHG  2  16  -1  19  -1
M  END
> <Name>
ligand_18

> <activity>
1

$$$$
ligand_19
  SciTegic10272118463D

 63 67  0  0  1  0            999 V2000
    0.7253   -1.2952    5.4147 C   0  0
    0.0397   -0.6348    4.3929 C   0  0
    0.4073   -0.7706    3.0517 C   0  0
    1.8133   -2.1223    5.1366 C   0  0
    2.2051   -2.2757    3.8000 C   0  0
    1.5004   -1.6025    2.7721 C   0  0
    2.1450   -1.9774    1.6019 N   0  0
    3.1824   -2.8206    1.9963 C   0  0
    3.2285   -3.0200    3.2900 N   0  0
    1.7727   -1.5257    0.2409 C   0  0  2  0  0  0
    1.4632   -2.7142   -0.7040 C   0  0
    2.7512   -0.4281   -0.3159 C   0  0
    2.1850    0.2730   -1.5839 C   0  0
    3.1516    1.3238   -2.1634 C   0  0
    3.5501    2.3721   -1.1098 C   0  0
    4.1123    1.7100    0.1604 C   0  0
    3.1510    0.6491    0.7330 C   0  0
    0.3315   -1.1323    6.6984 F   0  0
   -1.0095    0.1594    4.7052 F   0  0
    4.1585   -3.4767    1.0860 C   0  0
    3.9868   -4.8229    0.7526 C   0  0
    4.8738   -5.4390   -0.1260 C   0  0
    5.9368   -4.7110   -0.6572 C   0  0
    6.1299   -3.3768   -0.3025 C   0  0
    5.2411   -2.7589    0.5730 C   0  0
    7.0194   -5.4664   -1.7680 Cl  0  0
    2.4174   -3.0516   -1.5998 N   0  0
    2.4741   -4.1531   -2.4770 C   0  0
    1.8126   -5.3585   -2.1974 C   0  0
    1.9309   -6.4496   -3.0527 C   0  0
    2.7191   -6.3757   -4.2080 C   0  0
    3.3875   -5.1721   -4.4780 C   0  0
    3.2821   -4.0594   -3.6297 C   0  0
    2.8486   -7.5550   -5.1282 C   0  0
    2.2347   -8.6047   -4.8275 O   0  0
    3.5637   -7.4282   -6.1486 O   0  5
    4.0433   -2.7698   -3.9817 C   0  0
    4.8383   -2.9109   -5.0441 F   0  0
    3.1694   -1.8006   -4.2527 F   0  0
    4.8063   -2.3802   -2.9598 F   0  0
    0.3851   -3.2978   -0.5864 O   0  0
   -0.1367   -0.2500    2.2778 H   0  0
    2.3383   -2.6282    5.9332 H   0  0
    0.8093   -1.0252    0.3476 H   0  0
    3.6772   -0.9174   -0.6163 H   0  0
    1.9534   -0.4530   -2.3625 H   0  0
    1.2374    0.7562   -1.3398 H   0  0
    4.0464    0.8244   -2.5386 H   0  0
    2.6952    1.8158   -3.0232 H   0  0
    4.2838    3.0625   -1.5279 H   0  0
    2.6783    2.9745   -0.8494 H   0  0
    5.0704    1.2412   -0.0702 H   0  0
    4.3202    2.4699    0.9147 H   0  0
    2.2534    1.1404    1.1123 H   0  0
    3.6313    0.1875    1.5962 H   0  0
    3.1546   -5.3834    1.1537 H   0  0
    4.7291   -6.4732   -0.4025 H   0  0
    6.9590   -2.8192   -0.7128 H   0  0
    5.3885   -1.7233    0.8435 H   0  0
    3.2154   -2.4360   -1.6567 H   0  0
    1.2179   -5.4807   -1.3053 H   0  0
    1.4061   -7.3601   -2.7996 H   0  0
    4.0016   -5.1017   -5.3649 H   0  0
  1  2  2  0
  1  4  1  0
  1 18  1  0
  2  3  1  0
  2 19  1  0
  3  6  2  0
  3 42  1  0
  4  5  2  0
  4 43  1  0
  5  6  1  0
  5  9  1  0
  6  7  1  0
  7  8  1  0
  7 10  1  0
  8  9  2  0
  8 20  1  0
 10 11  1  0
 10 12  1  0
 10 44  1  0
 11 27  1  0
 11 41  2  0
 12 13  1  0
 12 17  1  0
 12 45  1  0
 13 14  1  0
 13 46  1  0
 13 47  1  0
 14 15  1  0
 14 48  1  0
 14 49  1  0
 15 16  1  0
 15 50  1  0
 15 51  1  0
 16 17  1  0
 16 52  1  0
 16 53  1  0
 17 54  1  0
 17 55  1  0
 20 21  2  0
 20 25  1  0
 21 22  1  0
 21 56  1  0
 22 23  2  0
 22 57  1  0
 23 24  1  0
 23 26  1  0
 24 25  2  0
 24 58  1  0
 25 59  1  0
 27 28  1  0
 27 60  1  0
 28 29  2  0
 28 33  1  0
 29 30  1  0
 29 61  1  0
 30 31  2  0
 30 62  1  0
 31 32  1  0
 31 34  1  0
 32 33  2  0
 32 63  1  0
 33 37  1  0
 34 35  2  0
 34 36  1  0
 37 38  1  0
 37 39  1  0
 37 40  1  0
M  CHG  1  36  -1
M  END
> <Name>
ligand_19

> <activity>
1

$$$$
ligand_20
  SciTegic10272118463D

 62 67  0  0  1  0            999 V2000
   21.1015  -11.7028    1.9426 C   0  0
   20.9659  -13.0562    2.2600 C   0  0
   21.9641  -13.9868    1.9602 C   0  0
   22.2469  -11.2213    1.3091 C   0  0
   23.2652  -12.1323    0.9979 C   0  0
   23.1156  -13.5021    1.3246 C   0  0
   24.2857  -14.0979    0.8770 N   0  0
   25.0566  -13.0671    0.3432 C   0  0
   24.4628  -11.8997    0.3869 N   0  0
   24.5996  -15.5427    0.9698 C   0  0  2  0  0  0
   25.5272  -15.8398    2.1723 C   0  0
   25.0214  -16.1770   -0.4056 C   0  0
   25.0078  -15.5895    3.3932 N   0  0
   26.6758  -16.2494    1.9905 O   0  0
   25.1059  -17.7311   -0.3513 C   0  0
   25.5314  -18.3532   -1.6962 C   0  0
   24.6142  -17.9099   -2.8490 C   0  0
   24.5104  -16.3771   -2.9270 C   0  0
   24.0858  -15.7622   -1.5791 C   0  0
   20.1069  -10.8403    2.2527 F   0  0
   19.8389  -13.4827    2.8741 F   0  0
   26.4157  -13.2154   -0.2474 C   0  0
   26.5924  -13.0300   -1.6215 C   0  0
   27.8561  -13.1779   -2.1869 C   0  0
   28.9424  -13.5008   -1.3756 C   0  0
   28.7753  -13.6706   -0.0024 C   0  0
   27.5117  -13.5224    0.5627 C   0  0
   30.5082  -13.6871   -2.0768 Cl  0  0
   25.6861  -15.7298    4.6112 C   0  0
   25.7131  -14.6299    5.4696 C   0  0
   26.3437  -14.7236    6.7096 C   0  0
   26.9449  -15.9212    7.1289 C   0  0
   26.8857  -17.0274    6.2661 C   0  0
   26.2565  -16.9440    5.0239 C   0  0
   27.6270  -16.0190    8.4723 C   0  0
   27.4744  -15.1254    9.4275 N   0  0
   28.2475  -15.5659   10.4752 N   0  0
   28.8435  -16.7359   10.0872 N   0  0
   28.4329  -17.0064    8.8036 N   0  5
   26.1913  -18.0498    4.2447 F   0  0
   21.8371  -15.0288    2.2133 H   0  0
   22.3431  -10.1732    1.0673 H   0  0
   23.6579  -16.0339    1.2199 H   0  0
   26.0235  -15.8230   -0.6503 H   0  0
   24.0935  -15.1650    3.4390 H   0  0
   25.8086  -18.0612    0.4132 H   0  0
   24.1366  -18.1387   -0.0595 H   0  0
   26.5598  -18.0637   -1.9186 H   0  0
   25.5321  -19.4413   -1.6198 H   0  0
   24.9823  -18.3090   -3.7949 H   0  0
   23.6193  -18.3344   -2.7051 H   0  0
   25.4746  -15.9620   -3.2253 H   0  0
   23.8025  -16.0920   -3.7062 H   0  0
   23.0620  -16.0637   -1.3517 H   0  0
   24.0577  -14.6794   -1.6953 H   0  0
   25.7504  -12.7819   -2.2516 H   0  0
   27.9910  -13.0429   -3.2500 H   0  0
   29.6204  -13.9158    0.6240 H   0  0
   27.3875  -13.6472    1.6285 H   0  0
   25.2565  -13.6946    5.1779 H   0  0
   26.3616  -13.8519    7.3475 H   0  0
   27.3218  -17.9707    6.5613 H   0  0
  1  2  2  0
  1  4  1  0
  1 20  1  0
  2  3  1  0
  2 21  1  0
  3  6  2  0
  3 41  1  0
  4  5  2  0
  4 42  1  0
  5  6  1  0
  5  9  1  0
  6  7  1  0
  7  8  1  0
  7 10  1  0
  8  9  2  0
  8 22  1  0
 10 11  1  0
 10 12  1  0
 10 43  1  0
 11 13  1  0
 11 14  2  0
 12 15  1  0
 12 19  1  0
 12 44  1  0
 13 29  1  0
 13 45  1  0
 15 16  1  0
 15 46  1  0
 15 47  1  0
 16 17  1  0
 16 48  1  0
 16 49  1  0
 17 18  1  0
 17 50  1  0
 17 51  1  0
 18 19  1  0
 18 52  1  0
 18 53  1  0
 19 54  1  0
 19 55  1  0
 22 23  2  0
 22 27  1  0
 23 24  1  0
 23 56  1  0
 24 25  2  0
 24 57  1  0
 25 26  1  0
 25 28  1  0
 26 27  2  0
 26 58  1  0
 27 59  1  0
 29 30  2  0
 29 34  1  0
 30 31  1  0
 30 60  1  0
 31 32  2  0
 31 61  1  0
 32 33  1  0
 32 35  1  0
 33 34  2  0
 33 62  1  0
 34 40  1  0
 35 36  2  0
 35 39  1  0
 36 37  1  0
 37 38  2  0
 38 39  1  0
M  CHG  1  39  -1
M  END
> <Name>
ligand_20

> <activity>
1

$$$$
ligand_21
  SciTegic10272118463D

 72 76  0  0  1  0            999 V2000
   -0.4299   -0.0659    0.7700 C   0  0
   -0.0048   -1.1273   -0.0160 N   0  0
    1.3757   -1.1751    0.1247 C   0  0
    1.6765   -0.1025    1.0017 C   0  0
    0.5442    0.5603    1.3802 N   0  0
    3.0050    0.1531    1.3669 C   0  0
    4.0029   -0.6711    0.8472 C   0  0
    3.6936   -1.7259   -0.0143 C   0  0
    2.3787   -2.0040   -0.3958 C   0  0
    4.6911   -2.5027   -0.4946 F   0  0
    5.2917   -0.4414    1.1873 F   0  0
   -0.8565   -2.0069   -0.8432 C   0  0  2  0  0  0
   -0.8441   -3.4531   -0.2995 C   0  0
   -0.0846   -4.2979   -0.7762 O   0  0
   -1.6754   -3.7071    0.7280 N   0  0
   -1.8272   -4.9916    1.4127 C   0  0  1  0  0  0
   -2.4647   -4.8308    2.8118 C   0  0
   -2.6088   -6.1727    3.5583 C   0  0
   -3.3717   -7.2195    2.7218 C   0  0  1  0  0  0
   -2.7296   -7.4004    1.3315 C   0  0
   -2.5846   -6.0594    0.5836 C   0  0
   -3.4422   -8.4518    3.4081 O   0  0
   -0.5314   -1.8594   -2.3714 C   0  0
   -0.5372   -0.3762   -2.8421 C   0  0
   -0.2298   -0.2200   -4.3438 C   0  0
   -1.1804   -1.0613   -5.2126 C   0  0
   -1.1817   -2.5367   -4.7767 C   0  0
   -1.4884   -2.6918   -3.2738 C   0  0
   -1.8502    0.3456    0.9206 C   0  0
   -2.3904    1.3856    0.1578 C   0  0
   -3.6954    1.7534    0.2749 N   0  0
   -4.4814    1.0919    1.1581 C   0  0
   -4.0012    0.0417    1.9537 C   0  0
   -2.6669   -0.3305    1.8281 C   0  0
   -5.7781    1.5641    1.1778 O   0  0
   -6.7179    0.9636    2.0619 C   0  0
   -1.5831    2.0492   -0.7510 O   0  0
   -2.1355    3.0835   -1.5626 C   0  0
    3.2538    0.9658    2.0330 H   0  0
    2.1614   -2.8270   -1.0598 H   0  0
   -1.8833   -1.6559   -0.7301 H   0  0
   -2.2737   -2.9619    1.0515 H   0  0
   -0.8110   -5.3607    1.5771 H   0  0
   -1.8694   -4.1436    3.4152 H   0  0
   -3.4480   -4.3678    2.7125 H   0  0
   -1.6159   -6.5536    3.8045 H   0  0
   -3.1170   -6.0112    4.5100 H   0  0
   -4.4024   -6.8838    2.5945 H   0  0
   -1.7436   -7.8563    1.4396 H   0  0
   -3.3210   -8.0924    0.7302 H   0  0
   -3.5750   -5.6813    0.3250 H   0  0
   -2.0736   -6.2312   -0.3648 H   0  0
   -3.9402   -9.0732    2.8719 H   0  0
    0.4761   -2.2418   -2.5427 H   0  0
   -1.5116    0.0666   -2.6299 H   0  0
    0.1896    0.2114   -2.2803 H   0  0
   -0.2966    0.8304   -4.6297 H   0  0
    0.8010   -0.5225   -4.5354 H   0  0
   -2.1922   -0.6593   -5.1382 H   0  0
   -0.8968   -0.9815   -6.2628 H   0  0
   -1.9094   -3.0971   -5.3650 H   0  0
   -0.2088   -2.9802   -4.9946 H   0  0
   -1.4372   -3.7511   -3.0216 H   0  0
   -2.5199   -2.3886   -3.0864 H   0  0
   -4.6332   -0.4806    2.6553 H   0  0
   -2.2722   -1.1366    2.4300 H   0  0
   -7.6835    1.4561    1.9481 H   0  0
   -6.8597   -0.0947    1.8373 H   0  0
   -6.4138    1.0724    3.1041 H   0  0
   -1.3599    3.4827   -2.2158 H   0  0
   -2.9400    2.7056   -2.1955 H   0  0
   -2.5162    3.9067   -0.9561 H   0  0
  1  2  1  0
  1  5  2  0
  1 29  1  0
  2  3  1  0
  2 12  1  0
  3  4  2  0
  3  9  1  0
  4  5  1  0
  4  6  1  0
  6  7  2  0
  6 39  1  0
  7  8  1  0
  7 11  1  0
  8  9  2  0
  8 10  1  0
  9 40  1  0
 12 13  1  0
 12 23  1  0
 12 41  1  0
 13 14  2  0
 13 15  1  0
 15 16  1  0
 15 42  1  0
 16 17  1  0
 16 21  1  0
 16 43  1  0
 17 18  1  0
 17 44  1  0
 17 45  1  0
 18 19  1  0
 18 46  1  0
 18 47  1  0
 19 20  1  0
 19 22  1  0
 19 48  1  0
 20 21  1  0
 20 49  1  0
 20 50  1  0
 21 51  1  0
 21 52  1  0
 22 53  1  0
 23 24  1  0
 23 28  1  0
 23 54  1  0
 24 25  1  0
 24 55  1  0
 24 56  1  0
 25 26  1  0
 25 57  1  0
 25 58  1  0
 26 27  1  0
 26 59  1  0
 26 60  1  0
 27 28  1  0
 27 61  1  0
 27 62  1  0
 28 63  1  0
 28 64  1  0
 29 30  2  0
 29 34  1  0
 30 31  1  0
 30 37  1  0
 31 32  2  0
 32 33  1  0
 32 35  1  0
 33 34  2  0
 33 65  1  0
 34 66  1  0
 35 36  1  0
 36 67  1  0
 36 68  1  0
 36 69  1  0
 37 38  1  0
 38 70  1  0
 38 71  1  0
 38 72  1  0
M  END
> <Name>
ligand_21

> <activity>
1

$$$$
ligand_22
  SciTegic10272118463D

 60 64  0  0  1  0            999 V2000
   19.1542  -22.6231    3.4175 C   0  0
   18.8276  -22.0206    2.2006 C   0  0
   19.8097  -21.5756    1.3118 C   0  0
   20.4833  -22.8070    3.7982 C   0  0
   21.4893  -22.3716    2.9253 C   0  0
   21.1453  -21.7617    1.6944 C   0  0
   22.3627  -21.4592    1.1020 N   0  0
   23.3388  -21.9183    1.9842 C   0  0
   22.8433  -22.4430    3.0781 N   0  0
   22.5320  -20.7823   -0.2046 C   0  0  2  0  0  0
   22.8153  -21.8019   -1.3329 C   0  0
   23.4863  -19.5347   -0.1432 C   0  0
   21.8124  -22.6581   -1.6212 N   0  0
   23.9117  -21.8238   -1.8966 O   0  0
   23.4659  -18.6963   -1.4556 C   0  0
   24.4105  -17.4790   -1.4006 C   0  0
   24.1160  -16.5788   -0.1882 C   0  0
   24.1283  -17.3812    1.1242 C   0  0
   23.1827  -18.5965    1.0616 C   0  0
   18.1676  -23.0370    4.2450 F   0  0
   17.5262  -21.8606    1.8690 F   0  0
   24.8106  -21.8350    1.7720 C   0  0
   25.5743  -20.9851    2.5770 C   0  0
   26.9492  -20.8893    2.3799 C   0  0
   27.5592  -21.6514    1.3851 C   0  0
   26.8052  -22.5130    0.5904 C   0  0
   25.4305  -22.6088    0.7879 C   0  0
   29.2630  -21.5304    1.1387 Cl  0  0
   21.8680  -23.6719   -2.5864 C   0  0
   21.6996  -24.9842   -2.1419 C   0  0
   21.7212  -26.0430   -3.0481 C   0  0
   21.8926  -25.8133   -4.4222 C   0  0
   22.0312  -24.4864   -4.8612 C   0  0
   22.0096  -23.4176   -3.9630 C   0  0
   21.9166  -26.9547   -5.3973 C   0  0
   21.7841  -28.1156   -4.9459 O   0  5
   22.0676  -26.6866   -6.6115 O   0  0
   22.1171  -21.8109   -4.6030 Cl  0  0
   19.5339  -21.1107    0.3771 H   0  0
   20.7266  -23.2737    4.7411 H   0  0
   21.5542  -20.3645   -0.4490 H   0  0
   24.5092  -19.8936   -0.0244 H   0  0
   20.9817  -22.6300   -1.0491 H   0  0
   23.7445  -19.3041   -2.3160 H   0  0
   22.4494  -18.3518   -1.6522 H   0  0
   25.4439  -17.8260   -1.3526 H   0  0
   24.3268  -16.9007   -2.3215 H   0  0
   24.8440  -15.7682   -0.1383 H   0  0
   23.1409  -16.1060   -0.3155 H   0  0
   25.1435  -17.7241    1.3314 H   0  0
   23.8498  -16.7348    1.9574 H   0  0
   22.1506  -18.2476    0.9995 H   0  0
   23.2582  -19.1336    2.0063 H   0  0
   25.1019  -20.3921    3.3470 H   0  0
   27.5381  -20.2261    2.9964 H   0  0
   27.2821  -23.1060   -0.1762 H   0  0
   24.8507  -23.2836    0.1752 H   0  0
   21.5645  -25.1935   -1.0901 H   0  0
   21.6011  -27.0479   -2.6679 H   0  0
   22.1463  -24.2711   -5.9145 H   0  0
  1  2  2  0
  1  4  1  0
  1 20  1  0
  2  3  1  0
  2 21  1  0
  3  6  2  0
  3 39  1  0
  4  5  2  0
  4 40  1  0
  5  6  1  0
  5  9  1  0
  6  7  1  0
  7  8  1  0
  7 10  1  0
  8  9  2  0
  8 22  1  0
 10 11  1  0
 10 12  1  0
 10 41  1  0
 11 13  1  0
 11 14  2  0
 12 15  1  0
 12 19  1  0
 12 42  1  0
 13 29  1  0
 13 43  1  0
 15 16  1  0
 15 44  1  0
 15 45  1  0
 16 17  1  0
 16 46  1  0
 16 47  1  0
 17 18  1  0
 17 48  1  0
 17 49  1  0
 18 19  1  0
 18 50  1  0
 18 51  1  0
 19 52  1  0
 19 53  1  0
 22 23  2  0
 22 27  1  0
 23 24  1  0
 23 54  1  0
 24 25  2  0
 24 55  1  0
 25 26  1  0
 25 28  1  0
 26 27  2  0
 26 56  1  0
 27 57  1  0
 29 30  2  0
 29 34  1  0
 30 31  1  0
 30 58  1  0
 31 32  2  0
 31 59  1  0
 32 33  1  0
 32 35  1  0
 33 34  2  0
 33 60  1  0
 34 38  1  0
 35 36  1  0
 35 37  2  0
M  CHG  1  36  -1
M  END
> <Name>
ligand_22

> <activity>
1

$$$$
ligand_23
  SciTegic10272118463D

 71 75  0  0  1  0            999 V2000
    5.0771    3.4829    0.2730 C   0  0
    5.1117    2.3736    1.1194 C   0  0
    4.0005    1.5447    1.2916 C   0  0
    2.8366    1.8725    0.5781 C   0  0
    2.7970    2.9902   -0.2851 C   0  0
    3.9245    3.8073   -0.4405 C   0  0
    1.5799    3.1027   -0.8796 N   0  0
    0.8658    2.0978   -0.4292 C   0  0
    1.5641    1.3108    0.5027 N   0  0
    1.1436    0.1411    1.3260 C   0  0  2  0  0  0
    0.4572   -1.0286    0.5825 C   0  0
   -0.6941   -1.3639    0.8624 O   0  0
    1.2031   -1.6752   -0.3338 N   0  0
    0.7820   -2.8194   -1.1463 C   0  0
    1.8076   -3.1422   -2.2582 C   0  0
    1.3511   -4.2970   -3.1712 C   0  0
    1.0157   -5.5630   -2.3618 C   0  0
   -0.0052   -5.2690   -1.2474 C   0  0
    0.4468   -4.1046   -0.3425 C   0  0
    0.5499    0.5278    2.7325 C   0  0
    1.5936    1.2212    3.6521 C   0  0
    1.0499    1.5282    5.0604 C   0  0
   -0.2422    2.3595    4.9974 C   0  0
   -1.3032    1.6726    4.1216 C   0  0
   -0.7715    1.3400    2.7125 C   0  0
   -0.5253    1.8817   -1.0486 C   0  0  1  0  0  0
   -0.5124    1.2649   -2.4614 C   0  0
   -1.5358    1.5751   -3.3592 C   0  0
   -1.5447    1.0447   -4.6426 C   0  0
   -0.5205    0.2039   -5.0526 C   0  0
    0.5125   -0.1006   -4.1783 C   0  0
    0.5168    0.4255   -2.8921 C   0  0
   -1.3881    1.1948   -0.1507 O   0  0
   -2.7737    1.1282   -0.4657 C   0  0
    6.2494    2.0895    1.7934 F   0  0
    6.1779    4.2570    0.1381 F   0  0
    4.0561    0.6933    1.9525 H   0  0
    3.9060    4.6647   -1.0968 H   0  0
    2.0814   -0.3500    1.5898 H   0  0
    2.1484   -1.3560   -0.4853 H   0  0
   -0.1335   -2.4882   -1.6438 H   0  0
    1.9989   -2.2570   -2.8636 H   0  0
    2.7654   -3.4015   -1.8038 H   0  0
    0.4732   -3.9846   -3.7391 H   0  0
    2.1253   -4.5197   -3.9065 H   0  0
    0.6324   -6.3400   -3.0245 H   0  0
    1.9294   -5.9634   -1.9197 H   0  0
   -0.9692   -5.0234   -1.6961 H   0  0
   -0.1697   -6.1650   -0.6475 H   0  0
    1.3225   -4.4109    0.2319 H   0  0
   -0.3355   -3.9061    0.3903 H   0  0
    0.3110   -0.4134    3.2336 H   0  0
    2.4838    0.5987    3.7475 H   0  0
    1.9190    2.1586    3.1999 H   0  0
    0.8571    0.5931    5.5887 H   0  0
    1.8045    2.0576    5.6436 H   0  0
   -0.6336    2.5197    6.0027 H   0  0
   -0.0209    3.3489    4.5937 H   0  0
   -1.6300    0.7524    4.6088 H   0  0
   -2.1887    2.3046    4.0446 H   0  0
   -0.6305    2.2660    2.1537 H   0  0
   -1.5468    0.7718    2.2027 H   0  0
   -0.9615    2.8776   -1.1608 H   0  0
   -2.3367    2.2368   -3.0633 H   0  0
   -2.3464    1.2910   -5.3232 H   0  0
   -0.5231   -0.2060   -6.0519 H   0  0
    1.3167   -0.7434   -4.5035 H   0  0
    1.3391    0.1835   -2.2373 H   0  0
   -3.3123    0.7070    0.3828 H   0  0
   -3.1903    2.1159   -0.6667 H   0  0
   -2.9616    0.4777   -1.3198 H   0  0
  1  2  1  0
  1  6  2  0
  1 36  1  0
  2  3  2  0
  2 35  1  0
  3  4  1  0
  3 37  1  0
  4  5  2  0
  4  9  1  0
  5  6  1  0
  5  7  1  0
  6 38  1  0
  7  8  2  0
  8  9  1  0
  8 26  1  0
  9 10  1  0
 10 11  1  0
 10 20  1  0
 10 39  1  0
 11 12  2  0
 11 13  1  0
 13 14  1  0
 13 40  1  0
 14 15  1  0
 14 19  1  0
 14 41  1  0
 15 16  1  0
 15 42  1  0
 15 43  1  0
 16 17  1  0
 16 44  1  0
 16 45  1  0
 17 18  1  0
 17 46  1  0
 17 47  1  0
 18 19  1  0
 18 48  1  0
 18 49  1  0
 19 50  1  0
 19 51  1  0
 20 21  1  0
 20 25  1  0
 20 52  1  0
 21 22  1  0
 21 53  1  0
 21 54  1  0
 22 23  1  0
 22 55  1  0
 22 56  1  0
 23 24  1  0
 23 57  1  0
 23 58  1  0
 24 25  1  0
 24 59  1  0
 24 60  1  0
 25 61  1  0
 25 62  1  0
 26 27  1  0
 26 33  1  0
 26 63  1  0
 27 28  2  0
 27 32  1  0
 28 29  1  0
 28 64  1  0
 29 30  2  0
 29 65  1  0
 30 31  1  0
 30 66  1  0
 31 32  2  0
 31 67  1  0
 32 68  1  0
 33 34  1  0
 34 69  1  0
 34 70  1  0
 34 71  1  0
M  END
> <Name>
ligand_23

> <activity>
1

$$$$
ligand_24
  SciTegic10272118463D

 68 72  0  0  1  0            999 V2000
   -5.1063    0.5847   -2.4106 C   0  0
   -4.7873    0.1820   -1.0796 O   0  0
   -3.4618    0.0642   -0.7045 C   0  0
   -3.1732   -0.3305    0.6014 C   0  0
   -1.8398   -0.4557    0.9900 C   0  0
   -0.8222   -0.1859    0.0704 C   0  0
    0.5991   -0.3416    0.4777 C   0  0
    1.2714    0.6329    1.0357 N   0  0
    2.5184    0.1196    1.2486 C   0  0
    3.6356    0.7426    1.8208 C   0  0
    4.8144    0.0069    1.9381 C   0  0
    5.9037    0.5895    2.4889 F   0  0
    4.8873   -1.3164    1.4983 C   0  0
    6.0492   -1.9957    1.6312 F   0  0
    3.7907   -1.9624    0.9230 C   0  0
    2.6043   -1.2242    0.8048 C   0  0
    1.3354   -1.5064    0.3114 N   0  0
    0.8431   -2.7721   -0.2816 C   0  0  1  0  0  0
    1.1262   -2.8087   -1.8239 C   0  0
    0.2845   -3.8754   -2.5762 C   0  0
    0.4877   -3.8136   -4.1027 C   0  0
    1.9764   -3.9115   -4.4836 C   0  0
    2.8164   -2.8409   -3.7631 C   0  0
    2.6231   -2.8836   -2.2337 C   0  0
    1.2135   -4.0315    0.5441 C   0  0
    1.7534   -5.0056    0.0188 O   0  0
    0.9147   -3.9905    1.8558 N   0  0
    1.2367   -5.0370    2.8248 C   0  0
    2.7250   -5.0717    3.2071 C   0  0
    2.7769   -5.7109    4.6036 C   0  0
    1.3456   -5.6494    5.1635 C   0  0
    0.5399   -4.8069    4.1687 C   0  0
   -1.1777    0.2134   -1.2248 C   0  0
   -0.1788    0.4901   -2.1431 O   0  0
   -0.5259    0.8360   -3.4823 C   0  0
   -2.4805    0.3339   -1.6117 N   0  0
   -6.1891    0.6238   -2.5275 H   0  0
   -4.7125    1.5780   -2.6321 H   0  0
   -4.7184   -0.1227   -3.1453 H   0  0
   -3.9701   -0.5375    1.3001 H   0  0
   -1.6006   -0.7644    1.9976 H   0  0
    3.5887    1.7654    2.1644 H   0  0
    3.8695   -2.9864    0.5892 H   0  0
   -0.2429   -2.7381   -0.1840 H   0  0
    0.7708   -1.8537   -2.2116 H   0  0
    0.5429   -4.8769   -2.2325 H   0  0
   -0.7745   -3.7429   -2.3500 H   0  0
   -0.0737   -4.6141   -4.5859 H   0  0
    0.0754   -2.8787   -4.4860 H   0  0
    2.3530   -4.9027   -4.2261 H   0  0
    2.0924   -3.8120   -5.5635 H   0  0
    3.8716   -2.9684   -4.0081 H   0  0
    2.5364   -1.8536   -4.1340 H   0  0
    3.1785   -2.0548   -1.7968 H   0  0
    3.0773   -3.7951   -1.8451 H   0  0
    0.4698   -3.1627    2.2236 H   0  0
    0.9429   -6.0231    2.4549 H   0  0
    3.3278   -5.6132    2.4768 H   0  0
    3.1241   -4.0566    3.2617 H   0  0
    3.1136   -6.7470    4.5430 H   0  0
    3.4821   -5.1813    5.2458 H   0  0
    0.9281   -6.6564    5.2142 H   0  0
    1.3104   -5.2353    6.1721 H   0  0
    0.5982   -3.7544    4.4543 H   0  0
   -0.5158   -5.0805    4.1475 H   0  0
   -1.1183    1.7516   -3.5181 H   0  0
   -1.0816    0.0327   -3.9687 H   0  0
    0.3835    1.0056   -4.0586 H   0  0
  1  2  1  0
  1 37  1  0
  1 38  1  0
  1 39  1  0
  2  3  1  0
  3  4  2  0
  3 36  1  0
  4  5  1  0
  4 40  1  0
  5  6  2  0
  5 41  1  0
  6  7  1  0
  6 33  1  0
  7  8  2  0
  7 17  1  0
  8  9  1  0
  9 10  2  0
  9 16  1  0
 10 11  1  0
 10 42  1  0
 11 12  1  0
 11 13  2  0
 13 14  1  0
 13 15  1  0
 15 16  2  0
 15 43  1  0
 16 17  1  0
 17 18  1  0
 18 19  1  0
 18 25  1  0
 18 44  1  0
 19 20  1  0
 19 24  1  0
 19 45  1  0
 20 21  1  0
 20 46  1  0
 20 47  1  0
 21 22  1  0
 21 48  1  0
 21 49  1  0
 22 23  1  0
 22 50  1  0
 22 51  1  0
 23 24  1  0
 23 52  1  0
 23 53  1  0
 24 54  1  0
 24 55  1  0
 25 26  2  0
 25 27  1  0
 27 28  1  0
 27 56  1  0
 28 29  1  0
 28 32  1  0
 28 57  1  0
 29 30  1  0
 29 58  1  0
 29 59  1  0
 30 31  1  0
 30 60  1  0
 30 61  1  0
 31 32  1  0
 31 62  1  0
 31 63  1  0
 32 64  1  0
 32 65  1  0
 33 34  1  0
 33 36  2  0
 34 35  1  0
 35 66  1  0
 35 67  1  0
 35 68  1  0
M  END
> <Name>
ligand_24

> <activity>
1

$$$$
ligand_25
  SciTegic10272118463D

 73 77  0  0  1  0            999 V2000
   -3.7952    2.5207   -3.3427 C   0  0
   -2.3885    2.7323   -3.3965 O   0  0
   -1.5734    2.1004   -2.4775 C   0  0
   -0.2057    2.3476   -2.5833 C   0  0
    0.6959    1.7555   -1.7039 C   0  0
    0.2406    0.8974   -0.7011 C   0  0
   -1.1323    0.6379   -0.5644 C   0  0
   -1.5240   -0.2031    0.4637 O   0  0
   -2.9001   -0.5352    0.6178 C   0  0
   -2.0290    1.2434   -1.4622 C   0  0
    1.2436    0.2823    0.2130 C   0  0
    2.0096    0.9900    1.1015 N   0  3
    2.8134    0.1252    1.8214 C   0  0
    3.7414    0.3627    2.8380 C   0  0
    4.3976   -0.7459    3.3714 C   0  0
    4.1409   -2.0336    2.9105 C   0  0
    3.2163   -2.2748    1.8944 C   0  0
    2.5461   -1.1707    1.3475 C   0  0
    1.5742   -1.0581    0.3372 N   0  0
    0.9968   -2.1510   -0.4791 C   0  0  1  0  0  0
    1.8999   -2.4913   -1.7157 C   0  0
    1.1690   -3.3704   -2.7690 C   0  0
    2.0195   -3.6157   -4.0304 C   0  0
    3.3971   -4.2064   -3.6810 C   0  0
    4.1454   -3.3266   -2.6635 C   0  0
    3.3082   -3.0646   -1.3951 C   0  0
    0.4498   -3.3251    0.3677 C   0  0
    0.9185   -4.4597    0.2606 O   0  0
   -0.5475   -3.0078    1.2183 N   0  0
   -1.1533   -3.9017    2.1138 C   0  0
   -0.8776   -3.7924    3.4860 C   0  0
    0.0846   -2.7395    4.0265 C   0  0
   -1.4828   -4.6711    4.3844 C   0  0
   -2.3655   -5.6468    3.9423 C   0  0
   -2.6536   -5.7415    2.5878 C   0  0
   -2.0649   -4.8748    1.6667 C   0  0
   -2.4430   -5.0105    0.1954 C   0  0
   -4.2746    3.0920   -4.1376 H   0  0
   -4.0490    1.4704   -3.4942 H   0  0
   -4.2159    2.8601   -2.3949 H   0  0
    0.1605    3.0056   -3.3580 H   0  0
    1.7517    1.9608   -1.8118 H   0  0
   -3.0132   -1.2129    1.4642 H   0  0
   -3.5063    0.3486    0.8222 H   0  0
   -3.2896   -1.0455   -0.2644 H   0  0
   -3.0851    1.0510   -1.3696 H   0  0
    3.9481    1.3580    3.2036 H   0  0
    5.1220   -0.6031    4.1602 H   0  0
    4.6709   -2.8661    3.3504 H   0  0
    3.0358   -3.2838    1.5550 H   0  0
    0.0891   -1.7438   -0.9230 H   0  0
    2.0801   -1.5367   -2.2160 H   0  0
    0.9049   -4.3364   -2.3378 H   0  0
    0.2267   -2.9029   -3.0579 H   0  0
    1.4905   -4.2830   -4.7121 H   0  0
    2.1525   -2.6754   -4.5678 H   0  0
    3.2698   -5.2094   -3.2705 H   0  0
    3.9948   -4.3208   -4.5863 H   0  0
    5.0929   -3.7944   -2.3933 H   0  0
    4.4008   -2.3739   -3.1304 H   0  0
    3.8646   -2.3745   -0.7628 H   0  0
    3.2186   -3.9948   -0.8342 H   0  0
   -0.8381   -2.0421    1.2769 H   0  0
    0.0468   -2.6708    5.1143 H   0  0
    1.1072   -2.9879    3.7430 H   0  0
   -0.1521   -1.7525    3.6273 H   0  0
   -1.2687   -4.6009    5.4411 H   0  0
   -2.8284   -6.3225    4.6464 H   0  0
   -3.3491   -6.4979    2.2538 H   0  0
   -2.6349   -4.0338   -0.2501 H   0  0
   -1.6356   -5.4889   -0.3595 H   0  0
   -3.3430   -5.6119    0.0609 H   0  0
    1.9434    1.9935    1.1928 H   0  0
  1  2  1  0
  1 38  1  0
  1 39  1  0
  1 40  1  0
  2  3  1  0
  3  4  2  0
  3 10  1  0
  4  5  1  0
  4 41  1  0
  5  6  2  0
  5 42  1  0
  6  7  1  0
  6 11  1  0
  7  8  1  0
  7 10  2  0
  8  9  1  0
  9 43  1  0
  9 44  1  0
  9 45  1  0
 10 46  1  0
 11 12  2  0
 11 19  1  0
 12 13  1  0
 12 73  1  0
 13 14  2  0
 13 18  1  0
 14 15  1  0
 14 47  1  0
 15 16  2  0
 15 48  1  0
 16 17  1  0
 16 49  1  0
 17 18  2  0
 17 50  1  0
 18 19  1  0
 19 20  1  0
 20 21  1  0
 20 27  1  0
 20 51  1  0
 21 22  1  0
 21 26  1  0
 21 52  1  0
 22 23  1  0
 22 53  1  0
 22 54  1  0
 23 24  1  0
 23 55  1  0
 23 56  1  0
 24 25  1  0
 24 57  1  0
 24 58  1  0
 25 26  1  0
 25 59  1  0
 25 60  1  0
 26 61  1  0
 26 62  1  0
 27 28  2  0
 27 29  1  0
 29 30  1  0
 29 63  1  0
 30 31  2  0
 30 36  1  0
 31 32  1  0
 31 33  1  0
 32 64  1  0
 32 65  1  0
 32 66  1  0
 33 34  2  0
 33 67  1  0
 34 35  1  0
 34 68  1  0
 35 36  2  0
 35 69  1  0
 36 37  1  0
 37 70  1  0
 37 71  1  0
 37 72  1  0
M  CHG  1  12   1
M  END
> <Name>
ligand_25

> <activity>
1

$$$$
ligand_26
  SciTegic10272118463D

 65 69  0  0  1  0            999 V2000
    8.7246   -4.0989   -0.1112 C   0  0
    1.8714   -3.1882    3.5669 C   0  0
    3.0055   -5.2257   -0.6626 C   0  0
    9.5535   -6.3755   -1.1514 C   0  0
    2.7864   -6.5848   -0.9714 C   0  0
   14.2204   -2.1630    0.8903 C   0  0
   14.0499   -1.3318    1.9955 C   0  0
    0.6391   -5.1200    1.8156 C   0  0
   10.9052   -4.6862   -0.0434 N   0  0
    6.7268   -3.0286   -0.6315 O   0  0
    1.6921   -3.9889   -0.4896 S   0  0
    1.2912   -4.4006    4.0504 O   0  0
    6.7351   -5.3052   -0.3075 N   0  0
    2.2765   -2.6919   -0.8525 O   0  0
    1.3275   -3.9373    1.2467 N   0  0
    5.3966   -5.6699   -0.5330 C   0  0
    9.7084   -5.0654   -0.4466 C   0  0
    0.1904   -4.8654    3.2678 C   0  0
    3.8720   -7.4610   -1.0575 C   0  0
    7.3077   -4.0842   -0.3761 C   0  0
   13.1333   -2.8718    0.3851 C   0  0
    2.3847   -3.3837    2.1272 C   0  0
    9.4534   -3.0522    0.4330 C   0  0
   11.7128   -1.9086    2.0991 C   0  0
    0.4910   -4.4591   -1.1887 O   0  0
   11.8744   -2.7470    0.9890 C   0  0
   10.7628   -3.4589    0.4821 N   0  0
    1.4005   -7.1646   -1.2201 C   0  0
    5.1670   -7.0095   -0.8363 C   0  0
    4.3139   -4.7863   -0.4376 C   0  0
   12.8023   -1.2019    2.6014 C   0  0
    8.8658   -6.4410   -2.3671 C   0  0
    8.7056   -7.6622   -3.0158 C   0  0
    9.2410   -8.8231   -2.4559 C   0  0
    9.9355   -8.7619   -1.2467 C   0  0
   10.0939   -7.5403   -0.5977 C   0  0
    9.0604  -10.1557   -3.1599 C   0  0
   15.7719   -2.3127    0.1497 Cl  0  0
    1.1232   -2.3942    3.6055 H   0  0
    2.6893   -2.8988    4.2269 H   0  0
   14.8925   -0.7817    2.3885 H   0  0
    1.3253   -5.9663    1.7681 H   0  0
   -0.2158   -5.3614    1.1837 H   0  0
    7.3616   -6.0770   -0.1322 H   0  0
   -0.6084   -4.1219    3.2999 H   0  0
   -0.1984   -5.7816    3.7125 H   0  0
    3.7175   -8.5038   -1.2948 H   0  0
   13.2712   -3.5120   -0.4748 H   0  0
    2.7306   -2.4395    1.7060 H   0  0
    3.2321   -4.0698    2.1139 H   0  0
    9.1549   -2.0792    0.7955 H   0  0
   10.7514   -1.8045    2.5813 H   0  0
    1.4191   -8.2526   -1.2948 H   0  0
    0.7169   -6.9162   -0.4098 H   0  0
    0.9918   -6.7839   -2.1563 H   0  0
    5.9893   -7.7080   -0.9076 H   0  0
    4.4730   -3.7534   -0.1700 H   0  0
   12.6809   -0.5561    3.4588 H   0  0
    8.4497   -5.5470   -2.8090 H   0  0
    8.1664   -7.7030   -3.9512 H   0  0
   10.3513   -9.6574   -0.8077 H   0  0
   10.6302   -7.5012    0.3397 H   0  0
    9.8852  -10.8347   -2.9399 H   0  0
    8.1333  -10.6286   -2.8350 H   0  0
    9.0172  -10.0275   -4.2422 H   0  0
  1 20  1  0
  1 23  2  0
  1 17  1  0
  2 12  1  0
  2 22  1  0
  2 39  1  0
  2 40  1  0
  3  5  1  0
  3 30  2  0
  3 11  1  0
  4 17  1  0
  4 32  2  0
  4 36  1  0
  5 19  2  0
  5 28  1  0
  6  7  2  0
  6 21  1  0
  6 38  1  0
  7 31  1  0
  7 41  1  0
  8 18  1  0
  8 15  1  0
  8 42  1  0
  8 43  1  0
  9 17  2  0
  9 27  1  0
 10 20  2  0
 11 15  1  0
 11 25  2  0
 11 14  2  0
 12 18  1  0
 13 16  1  0
 13 20  1  0
 13 44  1  0
 15 22  1  0
 16 30  1  0
 16 29  2  0
 18 45  1  0
 18 46  1  0
 19 29  1  0
 19 47  1  0
 21 26  2  0
 21 48  1  0
 22 49  1  0
 22 50  1  0
 23 27  1  0
 23 51  1  0
 24 31  2  0
 24 26  1  0
 24 52  1  0
 26 27  1  0
 28 53  1  0
 28 54  1  0
 28 55  1  0
 29 56  1  0
 30 57  1  0
 31 58  1  0
 32 33  1  0
 32 59  1  0
 33 34  2  0
 33 60  1  0
 34 35  1  0
 34 37  1  0
 35 36  2  0
 35 61  1  0
 36 62  1  0
 37 63  1  0
 37 64  1  0
 37 65  1  0
M  END
> <Name>
ligand_26

> <activity>
1

$$$$
ligand_27
  SciTegic10272118463D

 74 79  0  0  1  0            999 V2000
    8.4877   -5.9315    0.9789 C   0  0
    0.2996   -3.4163    3.4179 C   0  0
    3.1160   -4.3932   -0.7185 C   0  0
    9.0287   -7.4613   -1.1015 C   0  0
    2.8525   -4.8239   -2.0326 C   0  0
    2.1423   -5.3695    2.3733 C   0  0
   10.5716   -6.7455    0.6352 N   0  0
    6.3624   -5.5547    1.8467 O   0  0
    1.8949   -3.5388    0.2996 S   0  0
    0.2758   -4.7824    3.8363 O   0  0
    6.6742   -5.5058   -0.4302 N   0  0
    2.1456   -2.1056    0.1093 O   0  0
    2.2798   -3.9415    1.9896 N   0  0
    5.3777   -5.2622   -0.9125 C   0  0
    9.3419   -6.7187    0.1585 C   0  0
    0.7081   -5.7075    2.8362 C   0  0
    3.8481   -5.4774   -2.7636 C   0  0
    7.0806   -5.6485    0.8498 C   0  0
    1.7340   -3.0202    3.0150 C   0  0
    9.2854   -5.5713    2.0554 C   0  0
    0.5696   -4.0965    0.0061 O   0  0
   11.7440   -5.9103    2.5775 C   0  0
   10.5301   -6.0706    1.7894 N   0  0
    1.5116   -4.5828   -2.7120 C   0  0
    5.1036   -5.6955   -2.2082 C   0  0
    4.3897   -4.5924   -0.1799 C   0  0
    7.9359   -8.3321   -1.1497 C   0  0
    7.6327   -9.0106   -2.3268 C   0  0
    8.4274   -8.8281   -3.4595 C   0  0
    9.5245   -7.9661   -3.4144 C   0  0
    9.8260   -7.2867   -2.2371 C   0  0
    8.0927   -9.5625   -4.7450 C   0  0
   12.6224   -4.7665    2.0898 C   0  0
   12.4696   -3.4898    2.6298 C   0  0
   13.2602   -2.4308    2.1910 C   0  0
   14.2350   -2.6356    1.1840 C   0  0
   14.3949   -3.9383    0.6272 C   0  0
   13.5756   -4.9950    1.0958 C   0  0
   15.3700   -4.1345   -0.3800 C   0  0
   15.0576   -1.5856    0.7102 C   0  0
   16.0072   -1.8122   -0.2809 C   0  0
   16.1626   -3.0806   -0.8236 C   0  0
   -0.3905   -3.2847    2.5823 H   0  0
   -0.0543   -2.7881    4.2355 H   0  0
    2.8529   -5.5614    3.1780 H   0  0
    2.4489   -5.9955    1.5351 H   0  0
    7.3733   -5.6665   -1.1404 H   0  0
    0.0072   -5.6783    2.0008 H   0  0
    0.6722   -6.7148    3.2513 H   0  0
    3.6550   -5.8147   -3.7718 H   0  0
    1.7765   -1.9983    2.6379 H   0  0
    2.3964   -3.0591    3.8805 H   0  0
    9.0893   -5.0014    2.9520 H   0  0
   11.4625   -5.7542    3.6203 H   0  0
   12.3010   -6.8492    2.5578 H   0  0
    1.5704   -4.7298   -3.7913 H   0  0
    0.7607   -5.2724   -2.3258 H   0  0
    1.1674   -3.5613   -2.5469 H   0  0
    5.8590   -6.2039   -2.7912 H   0  0
    4.6053   -4.2163    0.8081 H   0  0
    7.3163   -8.4811   -0.2770 H   0  0
    6.7819   -9.6758   -2.3556 H   0  0
   10.1426   -7.8198   -4.2883 H   0  0
   10.6749   -6.6186   -2.2105 H   0  0
    8.9871   -9.7421   -5.3430 H   0  0
    7.6332  -10.5299   -4.5384 H   0  0
    7.3956   -8.9741   -5.3422 H   0  0
   11.7293   -3.3121    3.3965 H   0  0
   13.1320   -1.4461    2.6171 H   0  0
   13.6932   -5.9819    0.6708 H   0  0
   15.4977   -5.1184   -0.8082 H   0  0
   14.9432   -0.5950    1.1266 H   0  0
   16.6261   -0.9987   -0.6302 H   0  0
   16.9018   -3.2492   -1.5930 H   0  0
  1 18  1  0
  1 20  2  0
  1 15  1  0
  2 10  1  0
  2 19  1  0
  2 43  1  0
  2 44  1  0
  3  5  2  0
  3 26  1  0
  3  9  1  0
  4 15  1  0
  4 27  2  0
  4 31  1  0
  5 17  1  0
  5 24  1  0
  6 16  1  0
  6 13  1  0
  6 45  1  0
  6 46  1  0
  7 15  2  0
  7 23  1  0
  8 18  2  0
  9 13  1  0
  9 21  2  0
  9 12  2  0
 10 16  1  0
 11 14  1  0
 11 18  1  0
 11 47  1  0
 13 19  1  0
 14 26  2  0
 14 25  1  0
 16 48  1  0
 16 49  1  0
 17 25  2  0
 17 50  1  0
 19 51  1  0
 19 52  1  0
 20 23  1  0
 20 53  1  0
 22 23  1  0
 22 33  1  0
 22 54  1  0
 22 55  1  0
 24 56  1  0
 24 57  1  0
 24 58  1  0
 25 59  1  0
 26 60  1  0
 27 28  1  0
 27 61  1  0
 28 29  2  0
 28 62  1  0
 29 30  1  0
 29 32  1  0
 30 31  2  0
 30 63  1  0
 31 64  1  0
 32 65  1  0
 32 66  1  0
 32 67  1  0
 33 34  2  0
 33 38  1  0
 34 35  1  0
 34 68  1  0
 35 36  2  0
 35 69  1  0
 36 40  1  0
 36 37  1  0
 37 38  2  0
 37 39  1  0
 38 70  1  0
 39 42  2  0
 39 71  1  0
 40 41  2  0
 40 72  1  0
 41 42  1  0
 41 73  1  0
 42 74  1  0
M  END
> <Name>
ligand_27

> <activity>
1

$$$$
ligand_28
  SciTegic10272118463D

 64 68  0  0  1  0            999 V2000
   11.6361   -6.4471    4.9243 C   0  0
   10.8438   -7.5796    4.7254 C   0  0
   10.6497   -8.1284    3.4552 C   0  0
   12.2702   -5.8140    3.8559 C   0  0
   12.0922   -6.3438    2.5709 C   0  0
   11.2858   -7.4912    2.3801 C   0  0
   11.3257   -7.7294    1.0125 N   0  0
   12.1550   -6.7358    0.4830 C   0  0
   12.6056   -5.9024    1.3881 N   0  0
   10.5842   -8.8203    0.3287 C   0  0  2  0  0  0
   11.4099   -9.6633   -0.6696 C   0  0
    9.1587   -8.3876   -0.1635 C   0  0
   12.5018  -10.2762   -0.1733 N   0  0
   11.0673   -9.7619   -1.8487 O   0  0
    8.1706   -8.1162    1.0019 C   0  0
    6.7464   -7.7977    0.5027 C   0  0
    6.7384   -6.6377   -0.5107 C   0  0
    7.7187   -6.8893   -1.6719 C   0  0
    9.1387   -7.2021   -1.1606 C   0  0
   11.7943   -5.9523    6.1731 F   0  0
   10.2456   -8.1646    5.7880 F   0  0
   12.5504   -6.5595   -0.9452 C   0  0
   13.5442   -7.3667   -1.5057 C   0  0
   13.9240   -7.1894   -2.8330 C   0  0
   13.3261   -6.1867   -3.5936 C   0  0
   12.3603   -5.3535   -3.0322 C   0  0
   11.9810   -5.5332   -1.7047 C   0  0
   13.7952   -5.9661   -5.2396 Cl  0  0
   13.4264  -11.1230   -0.9301 C   0  0
   14.8105  -11.2286   -0.2492 C   0  0
   15.8034  -12.0925   -1.0527 C   0  0
   15.2287  -13.4873   -1.3621 C   0  0
   13.8586  -13.3938   -2.0587 C   0  0
   12.8642  -12.5293   -1.2578 C   0  0
   10.0315   -9.0039    3.3252 H   0  0
   12.8815   -4.9388    4.0186 H   0  0
   10.3935   -9.5624    1.1056 H   0  0
    8.7403   -9.2443   -0.6974 H   0  0
   12.7079  -10.1645    0.8085 H   0  0
    8.1299   -8.9768    1.6708 H   0  0
    8.5277   -7.2784    1.6022 H   0  0
    6.3192   -8.6873    0.0372 H   0  0
    6.1001   -7.5578    1.3480 H   0  0
    5.7302   -6.4869   -0.8985 H   0  0
    7.0106   -5.7115   -0.0019 H   0  0
    7.3598   -7.7225   -2.2781 H   0  0
    7.7437   -6.0215   -2.3321 H   0  0
    9.5283   -6.3121   -0.6681 H   0  0
    9.7912   -7.4047   -2.0102 H   0  0
   14.0238   -8.1319   -0.9142 H   0  0
   14.6825   -7.8243   -3.2668 H   0  0
   11.9093   -4.5682   -3.6210 H   0  0
   11.2421   -4.8762   -1.2694 H   0  0
   13.5914  -10.6067   -1.8799 H   0  0
   15.2328  -10.2330   -0.1052 H   0  0
   14.6930  -11.6521    0.7497 H   0  0
   16.0493  -11.5866   -1.9877 H   0  0
   16.7413  -12.1895   -0.5045 H   0  0
   15.9265  -14.0491   -1.9844 H   0  0
   15.1261  -14.0518   -0.4339 H   0  0
   13.9873  -12.9671   -3.0548 H   0  0
   13.4474  -14.3930   -2.2078 H   0  0
   12.6070  -13.0418   -0.3294 H   0  0
   11.9329  -12.4409   -1.8188 H   0  0
  1  2  2  0
  1  4  1  0
  1 20  1  0
  2  3  1  0
  2 21  1  0
  3  6  2  0
  3 35  1  0
  4  5  2  0
  4 36  1  0
  5  6  1  0
  5  9  1  0
  6  7  1  0
  7  8  1  0
  7 10  1  0
  8  9  2  0
  8 22  1  0
 10 11  1  0
 10 12  1  0
 10 37  1  0
 11 13  1  0
 11 14  2  0
 12 15  1  0
 12 19  1  0
 12 38  1  0
 13 29  1  0
 13 39  1  0
 15 16  1  0
 15 40  1  0
 15 41  1  0
 16 17  1  0
 16 42  1  0
 16 43  1  0
 17 18  1  0
 17 44  1  0
 17 45  1  0
 18 19  1  0
 18 46  1  0
 18 47  1  0
 19 48  1  0
 19 49  1  0
 22 23  2  0
 22 27  1  0
 23 24  1  0
 23 50  1  0
 24 25  2  0
 24 51  1  0
 25 26  1  0
 25 28  1  0
 26 27  2  0
 26 52  1  0
 27 53  1  0
 29 30  1  0
 29 34  1  0
 29 54  1  0
 30 31  1  0
 30 55  1  0
 30 56  1  0
 31 32  1  0
 31 57  1  0
 31 58  1  0
 32 33  1  0
 32 59  1  0
 32 60  1  0
 33 34  1  0
 33 61  1  0
 33 62  1  0
 34 63  1  0
 34 64  1  0
M  END
> <Name>
ligand_28

> <activity>
1

$$$$
ligand_29
  SciTegic10272118463D

 64 68  0  0  1  0            999 V2000
    4.9468  -19.6482    6.3225 C   0  0
    3.7205  -19.3090    5.7526 C   0  0
    3.5421  -19.2530    4.3687 C   0  0
    6.0619  -19.9484    5.5388 C   0  0
    5.8889  -19.8923    4.1526 C   0  0
    4.6543  -19.5537    3.5671 C   0  0
    4.8209  -19.5946    2.1741 N   0  0
    6.1437  -19.9331    1.9133 C   0  0
    6.7732  -20.1239    3.1151 N   0  3
    3.7526  -19.3032    1.1889 C   0  0  2  0  0  0
    3.5335  -20.4826    0.2079 C   0  0
    3.9075  -17.8779    0.5430 C   0  0
    2.6346  -17.4483   -0.2416 C   0  0
    2.7873  -16.0697   -0.9128 C   0  0
    3.1771  -14.9822    0.1036 C   0  0
    4.4331  -15.3783    0.8997 C   0  0
    4.2854  -16.7636    1.5607 C   0  0
    6.8153  -20.1036    0.5998 C   0  0
    7.0367  -21.3923    0.1075 C   0  0
    7.6259  -21.5654   -1.1420 C   0  0
    8.0029  -20.4504   -1.8881 C   0  0
    7.8114  -19.1639   -1.3866 C   0  0
    7.2178  -18.9894   -0.1393 C   0  0
    8.7057  -20.6646   -3.4491 Cl  0  0
    2.9285  -21.4779    0.6075 O   0  0
    4.0496  -20.3513   -1.0344 N   0  0
    4.1467  -21.2995   -2.0724 C   0  0
    4.1787  -22.6792   -1.8182 C   0  0
    4.3365  -23.5903   -2.8579 C   0  0
    4.4760  -23.1544   -4.1813 C   0  0
    4.4519  -21.7740   -4.4302 C   0  0
    4.2936  -20.8375   -3.3974 C   0  0
    4.2797  -19.3371   -3.7374 C   0  0
    4.5309  -19.0954   -5.0255 F   0  0
    3.0803  -18.8295   -3.4541 F   0  0
    5.1969  -18.6855   -3.0215 F   0  0
    4.6530  -24.1385   -5.3011 C   0  0
    4.6768  -25.3573   -5.0132 O   0  5
    4.7697  -23.6894   -6.4644 O   0  0
    5.0354  -19.6786    7.3988 H   0  0
    2.8856  -19.0838    6.4004 H   0  0
    2.5818  -18.9866    3.9530 H   0  0
    7.0080  -20.2088    5.9907 H   0  0
    2.8209  -19.2659    1.7539 H   0  0
    4.7225  -17.9177   -0.1794 H   0  0
    2.3797  -18.1805   -1.0069 H   0  0
    1.7805  -17.4217    0.4372 H   0  0
    3.5473  -16.1295   -1.6937 H   0  0
    1.8583  -15.7945   -1.4139 H   0  0
    3.3422  -14.0334   -0.4084 H   0  0
    2.3478  -14.8161    0.7932 H   0  0
    5.2961  -15.3874    0.2318 H   0  0
    4.6451  -14.6241    1.6585 H   0  0
    3.5273  -16.7116    2.3439 H   0  0
    5.2240  -17.0007    2.0625 H   0  0
    6.7281  -22.2581    0.6761 H   0  0
    7.7758  -22.5603   -1.5355 H   0  0
    8.1094  -18.3036   -1.9679 H   0  0
    7.0624  -17.9909    0.2435 H   0  0
    4.4377  -19.4479   -1.2634 H   0  0
    4.1084  -23.0700   -0.8149 H   0  0
    4.3582  -24.6444   -2.6186 H   0  0
    4.5602  -21.4234   -5.4472 H   0  0
    7.7461  -20.3874    3.1799 H   0  0
  1  2  2  0
  1  4  1  0
  1 40  1  0
  2  3  1  0
  2 41  1  0
  3  6  2  0
  3 42  1  0
  4  5  2  0
  4 43  1  0
  5  6  1  0
  5  9  1  0
  6  7  1  0
  7  8  1  0
  7 10  1  0
  8  9  2  0
  8 18  1  0
  9 64  1  0
 10 11  1  0
 10 12  1  0
 10 44  1  0
 11 25  2  0
 11 26  1  0
 12 13  1  0
 12 17  1  0
 12 45  1  0
 13 14  1  0
 13 46  1  0
 13 47  1  0
 14 15  1  0
 14 48  1  0
 14 49  1  0
 15 16  1  0
 15 50  1  0
 15 51  1  0
 16 17  1  0
 16 52  1  0
 16 53  1  0
 17 54  1  0
 17 55  1  0
 18 19  2  0
 18 23  1  0
 19 20  1  0
 19 56  1  0
 20 21  2  0
 20 57  1  0
 21 22  1  0
 21 24  1  0
 22 23  2  0
 22 58  1  0
 23 59  1  0
 26 27  1  0
 26 60  1  0
 27 28  2  0
 27 32  1  0
 28 29  1  0
 28 61  1  0
 29 30  2  0
 29 62  1  0
 30 31  1  0
 30 37  1  0
 31 32  2  0
 31 63  1  0
 32 33  1  0
 33 34  1  0
 33 35  1  0
 33 36  1  0
 37 38  1  0
 37 39  2  0
M  CHG  2   9   1  38  -1
M  END
> <Name>
ligand_29

> <activity>
1

$$$$
ligand_30
  SciTegic10272118463D

 64 68  0  0  1  0            999 V2000
    6.4951  -16.7700    5.0172 C   0  0
    5.9475  -18.0519    5.1291 C   0  0
    5.9563  -18.9506    4.0585 C   0  0
    7.0758  -16.3372    3.8256 C   0  0
    7.0968  -17.2192    2.7376 C   0  0
    6.5355  -18.5124    2.8595 C   0  0
    6.7168  -19.0970    1.6128 N   0  0
    7.3934  -18.1425    0.8479 C   0  0
    7.6084  -17.0210    1.4898 N   0  0
    6.2403  -20.4537    1.2410 C   0  0  2  0  0  0
    7.2712  -21.3240    0.4835 C   0  0
    6.9940  -21.6773   -0.7855 N   0  0
    8.3196  -21.6411    1.0474 O   0  0
    6.4684  -15.9266    6.0753 F   0  0
    5.2367  -18.5545    6.6216 Cl  0  0
    7.8777  -18.2994   -0.5534 C   0  0
    9.0833  -18.9628   -0.7993 C   0  0
    9.5465  -19.1081   -2.1039 C   0  0
    8.8117  -18.5741   -3.1603 C   0  0
    7.6260  -17.8821   -2.9199 C   0  0
    7.1645  -17.7353   -1.6144 C   0  0
    9.3740  -18.7745   -4.7792 Cl  0  0
    4.7707  -20.4548    0.6804 C   0  0
    3.7043  -20.1813    1.7742 C   0  0
    2.2641  -20.2924    1.2343 C   0  0
    2.0392  -19.3820    0.0128 C   0  0
    3.0907  -19.6328   -1.0840 C   0  0
    4.5270  -19.5219   -0.5356 C   0  0
    7.8652  -22.4397   -1.6803 C   0  0
    7.9558  -23.9492   -1.3445 C   0  0
    8.8939  -24.7112   -2.3026 C   0  0
    8.5167  -24.4855   -3.7789 C   0  0
    8.4375  -22.9862   -4.1229 C   0  0
    7.4945  -22.2303   -3.1664 C   0  0
    5.5294  -19.9368    4.1633 H   0  0
    7.4991  -15.3467    3.7474 H   0  0
    6.1821  -21.0013    2.1832 H   0  0
    6.1051  -21.3956   -1.1713 H   0  0
    9.6540  -19.3784    0.0190 H   0  0
   10.4688  -19.6374   -2.2932 H   0  0
    7.0659  -17.4595   -3.7411 H   0  0
    6.2509  -17.1891   -1.4305 H   0  0
    4.5646  -21.4718    0.3385 H   0  0
    3.8280  -20.8766    2.6054 H   0  0
    3.8445  -19.1813    2.1860 H   0  0
    2.0596  -21.3278    0.9575 H   0  0
    1.5511  -20.0420    2.0208 H   0  0
    1.0365  -19.5351   -0.3882 H   0  0
    2.0855  -18.3378    0.3264 H   0  0
    2.9411  -20.6258   -1.5107 H   0  0
    2.9493  -18.9260   -1.9027 H   0  0
    4.7059  -18.4877   -0.2407 H   0  0
    5.2284  -19.7410   -1.3395 H   0  0
    8.8641  -22.0151   -1.5496 H   0  0
    8.3009  -24.0870   -0.3189 H   0  0
    6.9586  -24.3905   -1.3870 H   0  0
    9.9215  -24.3829   -2.1381 H   0  0
    8.8758  -25.7772   -2.0722 H   0  0
    9.2395  -24.9801   -4.4289 H   0  0
    7.5530  -24.9553   -3.9824 H   0  0
    9.4352  -22.5473   -4.0690 H   0  0
    8.1048  -22.8570   -5.1535 H   0  0
    6.4685  -22.5614   -3.3357 H   0  0
    7.5088  -21.1673   -3.4098 H   0  0
  1  2  2  0
  1  4  1  0
  1 14  1  0
  2  3  1  0
  2 15  1  0
  3  6  2  0
  3 35  1  0
  4  5  2  0
  4 36  1  0
  5  6  1  0
  5  9  1  0
  6  7  1  0
  7  8  1  0
  7 10  1  0
  8  9  2  0
  8 16  1  0
 10 11  1  0
 10 23  1  0
 10 37  1  0
 11 12  1  0
 11 13  2  0
 12 29  1  0
 12 38  1  0
 16 17  1  0
 16 21  2  0
 17 18  2  0
 17 39  1  0
 18 19  1  0
 18 40  1  0
 19 20  2  0
 19 22  1  0
 20 21  1  0
 20 41  1  0
 21 42  1  0
 23 24  1  0
 23 28  1  0
 23 43  1  0
 24 25  1  0
 24 44  1  0
 24 45  1  0
 25 26  1  0
 25 46  1  0
 25 47  1  0
 26 27  1  0
 26 48  1  0
 26 49  1  0
 27 28  1  0
 27 50  1  0
 27 51  1  0
 28 52  1  0
 28 53  1  0
 29 30  1  0
 29 34  1  0
 29 54  1  0
 30 31  1  0
 30 55  1  0
 30 56  1  0
 31 32  1  0
 31 57  1  0
 31 58  1  0
 32 33  1  0
 32 59  1  0
 32 60  1  0
 33 34  1  0
 33 61  1  0
 33 62  1  0
 34 63  1  0
 34 64  1  0
M  END
> <Name>
ligand_30

> <activity>
1

$$$$
ligand_31
  SciTegic10272118463D

 66 70  0  0  1  0            999 V2000
    0.5465  -19.8991    2.0654 C   0  0
    0.6933  -21.1984    2.5561 C   0  0
    1.7878  -21.9963    2.2130 C   0  0
    1.4932  -19.3405    1.2071 C   0  0
    2.6024  -20.1175    0.8474 C   0  0
    2.7397  -21.4339    1.3512 C   0  0
    3.9235  -21.8986    0.7971 N   0  0
    4.4232  -20.8466    0.0317 C   0  0
    3.6466  -19.7910    0.0321 N   0  0
    4.4938  -23.2495    1.0082 C   0  0  2  0  0  0
    5.6061  -23.2272    2.0839 C   0  0
    4.8378  -23.9968   -0.3316 C   0  0
    5.2125  -22.8945    3.3318 N   0  0
    6.7755  -23.4728    1.7803 O   0  0
    5.2001  -25.4952   -0.1098 C   0  0
    5.5499  -26.2252   -1.4219 C   0  0
    4.4272  -26.0979   -2.4660 C   0  0
    4.0463  -24.6269   -2.7054 C   0  0
    3.6992  -23.9036   -1.3895 C   0  0
   -0.5313  -19.1659    2.4260 F   0  0
   -0.2478  -21.7031    3.3861 F   0  0
    5.6941  -20.8641   -0.7446 C   0  0
    6.9269  -20.8876   -0.0879 C   0  0
    8.1077  -20.9165   -0.8246 C   0  0
    8.0538  -20.9109   -2.2172 C   0  0
    6.8275  -20.8704   -2.8784 C   0  0
    5.6467  -20.8417   -2.1414 C   0  0
    9.5174  -20.9497   -3.1307 Cl  0  0
    6.0558  -22.7572    4.4423 C   0  0
    5.9991  -21.5569    5.1557 C   0  0
    6.7901  -21.3771    6.2903 C   0  0
    7.6321  -22.4013    6.7330 C   0  0
    7.6677  -23.6130    6.0365 C   0  0
    6.8786  -23.8003    4.9009 C   0  0
    8.4898  -22.2048    7.9740 C   0  0
    7.7609  -22.6307    9.2703 C   0  0
    8.6564  -22.5584   10.5180 C   0  0
    9.6166  -21.7553   10.5221 O   0  5
    8.3452  -23.3060   11.4709 O   0  0
    6.9073  -24.9992    4.2717 F   0  0
    1.8797  -22.9991    2.6028 H   0  0
    1.3715  -18.3350    0.8324 H   0  0
    3.6924  -23.8418    1.4525 H   0  0
    5.7218  -23.5282   -0.7655 H   0  0
    4.2519  -22.6155    3.4649 H   0  0
    6.0431  -25.6001    0.5724 H   0  0
    4.3636  -26.0050    0.3711 H   0  0
    6.4737  -25.8116   -1.8299 H   0  0
    5.7517  -27.2779   -1.2202 H   0  0
    4.7337  -26.5628   -3.4038 H   0  0
    3.5497  -26.6492   -2.1245 H   0  0
    4.8754  -24.1111   -3.1928 H   0  0
    3.2041  -24.5690   -3.3960 H   0  0
    2.7828  -24.3277   -0.9757 H   0  0
    3.4659  -22.8659   -1.6253 H   0  0
    6.9731  -20.8840    0.9914 H   0  0
    9.0600  -20.9427   -0.3155 H   0  0
    6.7905  -20.8618   -3.9579 H   0  0
    4.6964  -20.8127   -2.6550 H   0  0
    5.3509  -20.7555    4.8305 H   0  0
    6.7441  -20.4411    6.8281 H   0  0
    8.3005  -24.4177    6.3816 H   0  0
    9.4178  -22.7678    7.8542 H   0  0
    8.7929  -21.1575    8.0328 H   0  0
    6.8930  -21.9920    9.4380 H   0  0
    7.3805  -23.6483    9.1662 H   0  0
  1  2  2  0
  1  4  1  0
  1 20  1  0
  2  3  1  0
  2 21  1  0
  3  6  2  0
  3 41  1  0
  4  5  2  0
  4 42  1  0
  5  6  1  0
  5  9  1  0
  6  7  1  0
  7  8  1  0
  7 10  1  0
  8  9  2  0
  8 22  1  0
 10 11  1  0
 10 12  1  0
 10 43  1  0
 11 13  1  0
 11 14  2  0
 12 15  1  0
 12 19  1  0
 12 44  1  0
 13 29  1  0
 13 45  1  0
 15 16  1  0
 15 46  1  0
 15 47  1  0
 16 17  1  0
 16 48  1  0
 16 49  1  0
 17 18  1  0
 17 50  1  0
 17 51  1  0
 18 19  1  0
 18 52  1  0
 18 53  1  0
 19 54  1  0
 19 55  1  0
 22 23  2  0
 22 27  1  0
 23 24  1  0
 23 56  1  0
 24 25  2  0
 24 57  1  0
 25 26  1  0
 25 28  1  0
 26 27  2  0
 26 58  1  0
 27 59  1  0
 29 30  2  0
 29 34  1  0
 30 31  1  0
 30 60  1  0
 31 32  2  0
 31 61  1  0
 32 33  1  0
 32 35  1  0
 33 34  2  0
 33 62  1  0
 34 40  1  0
 35 36  1  0
 35 63  1  0
 35 64  1  0
 36 37  1  0
 36 65  1  0
 36 66  1  0
 37 38  1  0
 37 39  2  0
M  CHG  1  38  -1
M  END
> <Name>
ligand_31

> <activity>
1

$$$$
ligand_32
  SciTegic10272118463D

 71 75  0  0  1  0            999 V2000
   -0.6988    4.2826    3.3623 C   0  0
   -0.7848    3.0117    3.9305 C   0  0
   -0.5323    1.8558    3.1877 C   0  0
   -0.1879    2.0264    1.8388 C   0  0
   -0.0977    3.3113    1.2532 C   0  0
   -0.3558    4.4551    2.0214 C   0  0
    0.2491    3.2267   -0.0619 N   0  0
    0.3863    1.9447   -0.3061 C   0  0
    0.1239    1.1469    0.8107 N   0  0
    0.1455   -0.3302    0.9478 C   0  0  2  0  0  0
    1.4330   -1.0136    0.4345 C   0  0
    1.3857   -1.8572   -0.4612 O   0  0
    2.5826   -0.6264    1.0192 N   0  0
    3.9268   -1.1036    0.6896 C   0  0
    5.0217   -0.2159    1.3249 C   0  0
    6.4450   -0.6593    0.9333 C   0  0
    6.6887   -2.1438    1.2628 C   0  0
    5.6097   -3.0487    0.6392 C   0  0
    4.1852   -2.5967    1.0211 C   0  0
   -1.2087   -1.0159    0.5527 C   0  0
   -2.3555   -0.6909    1.5469 C   0  0
   -3.6550   -1.4533    1.2174 C   0  0
   -4.1031   -1.2230   -0.2380 C   0  0
   -2.9745   -1.5394   -1.2372 C   0  0
   -1.6830   -0.7672   -0.9021 C   0  0
    0.7589    1.4327   -1.7010 C   0  0
    1.3109    2.4658   -2.5221 O   0  0
    2.6415    2.8305   -2.4015 C   0  0
    3.5259    2.2694   -1.4635 C   0  0
    4.8569    2.6811   -1.4057 C   0  0
    5.3232    3.6612   -2.2780 C   0  0
    4.4569    4.2309   -3.2086 C   0  0
    3.1211    3.8214   -3.2740 C   0  0
    2.1940    4.4585   -4.2985 C   0  0
    6.9708    4.1696   -2.2048 Cl  0  0
   -1.1216    2.8945    5.2345 F   0  0
   -0.9025    5.1496    3.9737 H   0  0
   -0.6060    0.8819    3.6476 H   0  0
   -0.2919    5.4431    1.5895 H   0  0
    0.2381   -0.5138    2.0196 H   0  0
    2.5309    0.0611    1.7565 H   0  0
    4.0132   -0.9845   -0.3938 H   0  0
    4.8730    0.8255    1.0402 H   0  0
    4.9244   -0.2418    2.4117 H   0  0
    6.5954   -0.4938   -0.1348 H   0  0
    7.1827   -0.0386    1.4436 H   0  0
    7.6771   -2.4465    0.9149 H   0  0
    6.6927   -2.2787    2.3456 H   0  0
    5.7123   -3.0373   -0.4471 H   0  0
    5.7675   -4.0830    0.9475 H   0  0
    4.0258   -2.7639    2.0876 H   0  0
    3.4625   -3.2320    0.5081 H   0  0
   -1.0474   -2.0931    0.6414 H   0  0
   -2.0510   -0.9308    2.5665 H   0  0
   -2.5624    0.3801    1.5347 H   0  0
   -3.5001   -2.5206    1.3833 H   0  0
   -4.4480   -1.1519    1.9029 H   0  0
   -4.9805   -1.8317   -0.4599 H   0  0
   -4.4142   -0.1843   -0.3606 H   0  0
   -2.7694   -2.6111   -1.2277 H   0  0
   -3.2983   -1.3011   -2.2511 H   0  0
   -1.8745    0.2962   -1.0463 H   0  0
   -0.9045   -1.0492   -1.6111 H   0  0
    1.4107    0.5623   -1.7123 H   0  0
   -0.1395    1.1212   -2.2291 H   0  0
    3.1974    1.5140   -0.7678 H   0  0
    5.5283    2.2411   -0.6838 H   0  0
    4.8267    4.9920   -3.8805 H   0  0
    1.8094    3.7014   -4.9826 H   0  0
    1.3463    4.9297   -3.7997 H   0  0
    2.6992    5.2214   -4.8923 H   0  0
  1  2  1  0
  1  6  2  0
  1 37  1  0
  2  3  2  0
  2 36  1  0
  3  4  1  0
  3 38  1  0
  4  5  2  0
  4  9  1  0
  5  6  1  0
  5  7  1  0
  6 39  1  0
  7  8  2  0
  8  9  1  0
  8 26  1  0
  9 10  1  0
 10 11  1  0
 10 20  1  0
 10 40  1  0
 11 12  2  0
 11 13  1  0
 13 14  1  0
 13 41  1  0
 14 15  1  0
 14 19  1  0
 14 42  1  0
 15 16  1  0
 15 43  1  0
 15 44  1  0
 16 17  1  0
 16 45  1  0
 16 46  1  0
 17 18  1  0
 17 47  1  0
 17 48  1  0
 18 19  1  0
 18 49  1  0
 18 50  1  0
 19 51  1  0
 19 52  1  0
 20 21  1  0
 20 25  1  0
 20 53  1  0
 21 22  1  0
 21 54  1  0
 21 55  1  0
 22 23  1  0
 22 56  1  0
 22 57  1  0
 23 24  1  0
 23 58  1  0
 23 59  1  0
 24 25  1  0
 24 60  1  0
 24 61  1  0
 25 62  1  0
 25 63  1  0
 26 27  1  0
 26 64  1  0
 26 65  1  0
 27 28  1  0
 28 29  2  0
 28 33  1  0
 29 30  1  0
 29 66  1  0
 30 31  2  0
 30 67  1  0
 31 32  1  0
 31 35  1  0
 32 33  2  0
 32 68  1  0
 33 34  1  0
 34 69  1  0
 34 70  1  0
 34 71  1  0
M  END
> <Name>
ligand_32

> <activity>
1

$$$$
ligand_33
  SciTegic10272118463D

 65 69  0  0  1  0            999 V2000
    8.6489   -4.1671    0.0834 C   0  0
    2.2314   -3.8035    3.8215 C   0  0
    2.9233   -4.8588   -0.8341 C   0  0
    9.3812   -6.5779   -0.6943 C   0  0
    2.6518   -6.1071   -1.4328 C   0  0
   14.0800   -2.2692    1.4244 C   0  0
   14.0964   -1.0016    0.8472 C   0  0
    0.8012   -5.2994    1.8128 C   0  0
   10.8294   -4.6904   -0.1952 N   0  0
    6.5941   -3.6308    1.0336 O   0  0
    1.6578   -3.6886   -0.2759 S   0  0
    1.6743   -5.0935    4.0783 O   0  0
    6.6604   -5.0235   -0.7934 N   0  0
    2.2347   -2.3443   -0.4016 O   0  0
    1.4562   -4.0188    1.4562 N   0  0
    5.3050   -5.3378   -0.9841 C   0  0
    9.5997   -5.1605   -0.2699 C   0  0
    0.4958   -5.3741    3.3215 C   0  0
    3.7088   -6.9362   -1.8201 C   0  0
    7.2119   -4.2426    0.1605 C   0  0
   12.9732   -3.1005    1.2611 C   0  0
    2.6027   -3.6733    2.3318 C   0  0
    9.4219   -3.0892    0.4875 C   0  0
   11.8994   -1.3686   -0.0659 C   0  0
    0.3877   -3.9932   -0.9439 O   0  0
   11.8776   -2.6484    0.5011 C   0  0
   10.7310   -3.4442    0.2897 N   0  0
    1.2383   -6.6118   -1.6888 C   0  0
    5.0269   -6.5537   -1.6030 C   0  0
    4.2539   -4.4892   -0.6171 C   0  0
   13.0094   -0.5476    0.1052 C   0  0
    9.9929   -7.0686   -1.8521 C   0  0
    9.7768   -8.3842   -2.2535 C   0  0
    8.9494   -9.2160   -1.4972 C   0  0
    8.3465   -8.7344   -0.3342 C   0  0
    8.5645   -7.4194    0.0672 C   0  0
    8.7146  -10.6508   -1.9331 C   0  0
   15.4731    0.0171    1.0590 Cl  0  0
   12.9937   -4.6455    2.0445 Cl  0  0
    1.5068   -3.0385    4.1070 H   0  0
    3.1138   -3.6675    4.4470 H   0  0
   14.9261   -2.6047    2.0066 H   0  0
    1.4631   -6.1129    1.5135 H   0  0
   -0.1137   -5.3962    1.2277 H   0  0
    7.3040   -5.5061   -1.4032 H   0  0
   -0.2813   -4.6572    3.5936 H   0  0
    0.1319   -6.3666    3.5877 H   0  0
    3.5139   -7.8898   -2.2892 H   0  0
    2.9269   -2.6588    2.0987 H   0  0
    3.4317   -4.3379    2.0865 H   0  0
    9.1599   -2.1158    0.8768 H   0  0
   11.0635   -1.0091   -0.6496 H   0  0
    1.2281   -7.6523   -2.0158 H   0  0
    0.6319   -6.5591   -0.7857 H   0  0
    0.7598   -6.0225   -2.4713 H   0  0
    5.8271   -7.2150   -1.9051 H   0  0
    4.4620   -3.5316   -0.1648 H   0  0
   13.0262    0.4373   -0.3383 H   0  0
   10.6312   -6.4293   -2.4451 H   0  0
   10.2518   -8.7533   -3.1510 H   0  0
    7.7111   -9.3754    0.2596 H   0  0
    8.0942   -7.0554    0.9694 H   0  0
    9.4592  -11.3064   -1.4810 H   0  0
    7.7257  -10.9982   -1.6314 H   0  0
    8.7843  -10.7515   -3.0170 H   0  0
  1 20  1  0
  1 23  2  0
  1 17  1  0
  2 12  1  0
  2 22  1  0
  2 40  1  0
  2 41  1  0
  3  5  2  0
  3 30  1  0
  3 11  1  0
  4 17  1  0
  4 32  2  0
  4 36  1  0
  5 19  1  0
  5 28  1  0
  6  7  2  0
  6 21  1  0
  6 42  1  0
  7 31  1  0
  7 38  1  0
  8 18  1  0
  8 15  1  0
  8 43  1  0
  8 44  1  0
  9 17  2  0
  9 27  1  0
 10 20  2  0
 11 15  1  0
 11 25  2  0
 11 14  2  0
 12 18  1  0
 13 16  1  0
 13 20  1  0
 13 45  1  0
 15 22  1  0
 16 30  2  0
 16 29  1  0
 18 46  1  0
 18 47  1  0
 19 29  2  0
 19 48  1  0
 21 26  2  0
 21 39  1  0
 22 49  1  0
 22 50  1  0
 23 27  1  0
 23 51  1  0
 24 31  2  0
 24 26  1  0
 24 52  1  0
 26 27  1  0
 28 53  1  0
 28 54  1  0
 28 55  1  0
 29 56  1  0
 30 57  1  0
 31 58  1  0
 32 33  1  0
 32 59  1  0
 33 34  2  0
 33 60  1  0
 34 35  1  0
 34 37  1  0
 35 36  2  0
 35 61  1  0
 36 62  1  0
 37 63  1  0
 37 64  1  0
 37 65  1  0
M  END
> <Name>
ligand_33

> <activity>
1

$$$$
ligand_34
  SciTegic10272118463D

 66 69  0  0  1  0            999 V2000
   12.2692   -0.3286   -0.0046 C   0  0
   12.1925   -1.5276    0.9542 C   0  0  2  0  0  0
   13.1009   -2.6758    0.4794 C   0  0
   13.7254    0.1341   -0.1957 C   0  0
   14.7008   -0.9766   -0.7069 C   0  0  1  0  0  0
   14.5717   -2.2306    0.2371 C   0  0  2  0  0  0
   15.4384   -3.4221   -0.2408 C   0  0
   15.1581   -3.8178   -1.7017 C   0  0
   14.3983   -1.4078   -2.1961 C   0  0  2  0  0  0
   15.2730   -2.6192   -2.6712 C   0  0  2  0  0  0
   14.1229   -0.7072   -4.6945 C   0  0
   14.3943   -0.2473   -3.2393 C   0  0
   15.0752   -1.8475   -5.1539 C   0  0  1  0  0  0
   14.8963   -2.9970   -4.1270 C   0  0  1  0  0  0
   15.5508   -4.2140   -4.7798 C   0  0
   15.2542   -4.0274   -6.2763 C   0  0
   14.6721   -2.5964   -6.4691 C   0  0  2  0  0  0
   16.1343   -0.3812   -0.5864 C   0  0
   15.0229   -1.9662   -7.8614 C   0  0  1  0  0  0
   14.5247   -2.8607   -9.0333 C   0  0
   14.4954   -0.5224   -8.0231 C   0  0
   15.0324   -2.4370  -10.4373 C   0  0
   14.8355   -3.5294  -11.5021 C   0  0
   16.5454   -1.3304   -5.2438 C   0  0
   10.8579   -1.9661    1.1019 O   0  0
   13.8467   -4.2900  -11.3990 O   0  5
   15.6755   -3.5687  -12.4278 O   0  0
   11.8296   -0.5860   -0.9692 H   0  0
   11.6731    0.4970    0.3868 H   0  0
   12.5170   -1.2071    1.9456 H   0  0
   13.0811   -3.4800    1.2166 H   0  0
   12.6824   -3.1006   -0.4335 H   0  0
   13.7489    1.0093   -0.8443 H   0  0
   14.0775    0.5023    0.7701 H   0  0
   14.9573   -1.9445    1.2180 H   0  0
   16.4948   -3.1726   -0.1365 H   0  0
   15.2848   -4.2848    0.4091 H   0  0
   15.8540   -4.6046   -1.9954 H   0  0
   14.1635   -4.2588   -1.7776 H   0  0
   13.3724   -1.7777   -2.2054 H   0  0
   16.3204   -2.3224   -2.6682 H   0  0
   13.0861   -1.0396   -4.7700 H   0  0
   14.1967    0.1602   -5.3463 H   0  0
   13.6350    0.4895   -2.9799 H   0  0
   15.3430    0.2867   -3.2099 H   0  0
   13.8302   -3.2414   -4.0867 H   0  0
   16.6267   -4.2148   -4.5982 H   0  0
   15.1523   -5.1541   -4.3960 H   0  0
   16.1758   -4.1649   -6.8442 H   0  0
   14.5473   -4.7794   -6.6303 H   0  0
   13.5840   -2.6959   -6.4517 H   0  0
   16.9096   -1.0558   -0.9452 H   0  0
   16.2380    0.5483   -1.1460 H   0  0
   16.3821   -0.1479    0.4500 H   0  0
   16.1104   -1.9221   -7.9382 H   0  0
   14.8527   -3.8855   -8.8554 H   0  0
   13.4336   -2.8939   -9.0303 H   0  0
   14.6740   -0.1302   -9.0233 H   0  0
   13.4226   -0.4655   -7.8353 H   0  0
   14.9956    0.1713   -7.3521 H   0  0
   14.5105   -1.5447  -10.7820 H   0  0
   16.0931   -2.1852  -10.3883 H   0  0
   17.2377   -2.1097   -5.5620 H   0  0
   16.6417   -0.5145   -5.9584 H   0  0
   16.9197   -0.9472   -4.2962 H   0  0
   10.8448   -2.7023    1.7178 H   0  0
  1  2  1  0
  1  4  1  0
  1 28  1  0
  1 29  1  0
  2  3  1  0
  2 25  1  0
  2 30  1  0
  3  6  1  0
  3 31  1  0
  3 32  1  0
  4  5  1  0
  4 33  1  0
  4 34  1  0
  5  6  1  0
  5  9  1  0
  5 18  1  0
  6  7  1  0
  6 35  1  0
  7  8  1  0
  7 36  1  0
  7 37  1  0
  8 10  1  0
  8 38  1  0
  8 39  1  0
  9 10  1  0
  9 12  1  0
  9 40  1  0
 10 14  1  0
 10 41  1  0
 11 12  1  0
 11 13  1  0
 11 42  1  0
 11 43  1  0
 12 44  1  0
 12 45  1  0
 13 14  1  0
 13 17  1  0
 13 24  1  0
 14 15  1  0
 14 46  1  0
 15 16  1  0
 15 47  1  0
 15 48  1  0
 16 17  1  0
 16 49  1  0
 16 50  1  0
 17 19  1  0
 17 51  1  0
 18 52  1  0
 18 53  1  0
 18 54  1  0
 19 20  1  0
 19 21  1  0
 19 55  1  0
 20 22  1  0
 20 56  1  0
 20 57  1  0
 21 58  1  0
 21 59  1  0
 21 60  1  0
 22 23  1  0
 22 61  1  0
 22 62  1  0
 23 26  1  0
 23 27  2  0
 24 63  1  0
 24 64  1  0
 24 65  1  0
 25 66  1  0
M  CHG  1  26  -1
M  END
> <Name>
ligand_34

> <activity>
1

$$$$
ligand_35
  SciTegic10272118463D

 67 72  0  0  1  0            999 V2000
    8.7814   -4.3991    0.0149 C   0  0
    1.7858   -3.9765    3.5744 C   0  0
    3.0138   -5.1768   -0.5136 C   0  0
    9.4761   -6.8499   -0.6665 C   0  0
    2.7205   -6.4389   -1.0646 C   0  0
   -0.4221   -4.3443    1.7584 C   0  0
   10.9445   -4.9369   -0.3621 N   0  0
    6.7864   -3.8135    1.0581 O   0  0
    1.7262   -4.0410    0.0442 S   0  0
    0.4552   -3.5564    3.8844 O   0  0
    6.7476   -5.3072   -0.6883 N   0  0
    2.3750   -2.8367    0.5771 O   0  0
    0.9168   -4.8661    1.3935 N   0  0
    5.3853   -5.6364   -0.7830 C   0  0
    9.7139   -5.4103   -0.3377 C   0  0
   -0.3146   -3.1649    2.7458 C   0  0
    3.7600   -7.2752   -1.4798 C   0  0
    7.3521   -4.4725    0.1844 C   0  0
    1.7579   -5.1591    2.5814 C   0  0
    9.5719   -3.2979    0.3086 C   0  0
    0.7604   -3.9158   -1.0538 O   0  0
   12.0086   -2.8762    0.1527 C   0  0
   10.8683   -3.6591    0.0407 N   0  0
    1.2905   -6.9345   -1.2411 C   0  0
    5.0843   -6.8756   -1.3446 C   0  0
    4.3487   -4.7837   -0.3816 C   0  0
   10.0190   -7.4049   -1.8296 C   0  0
    9.7844   -8.7413   -2.1423 C   0  0
    9.0076   -9.5295   -1.2916 C   0  0
    8.4738   -8.9833   -0.1234 C   0  0
    8.7101   -7.6475    0.1891 C   0  0
    8.7527  -10.9869   -1.6308 C   0  0
   13.6131   -3.4963   -0.2292 S   0  0
   14.2706   -1.9214    0.1867 C   0  0
   13.2101   -1.0676    0.5778 C   0  0
   11.9720   -1.6286    0.5469 N   0  0
   15.5949   -1.4664    0.1743 C   0  0
   15.8462   -0.1496    0.5569 C   0  0
   14.8095    0.6964    0.9428 C   0  0
   13.4868    0.2532    0.9587 C   0  0
    2.3383   -3.1300    3.1644 H   0  0
    2.2853   -4.2696    4.4979 H   0  0
   -0.9860   -5.1637    2.2052 H   0  0
   -0.9550   -4.0598    0.8509 H   0  0
    7.3565   -5.8195   -1.3094 H   0  0
    0.1582   -2.3021    2.2728 H   0  0
   -1.3052   -2.8531    3.0770 H   0  0
    3.5466   -8.2426   -1.9110 H   0  0
    2.7615   -5.4275    2.2512 H   0  0
    1.3443   -6.0450    3.0643 H   0  0
    9.3273   -2.3050    0.6581 H   0  0
    1.2581   -7.9658   -1.5950 H   0  0
    0.7423   -6.9044   -0.3007 H   0  0
    0.7611   -6.3258   -1.9740 H   0  0
    5.8729   -7.5398   -1.6703 H   0  0
    4.5733   -3.8096    0.0240 H   0  0
   10.6176   -6.7999   -2.4954 H   0  0
   10.2060   -9.1604   -3.0445 H   0  0
    7.8778   -9.5901    0.5428 H   0  0
    8.2933   -7.2333    1.0960 H   0  0
    9.5247  -11.6156   -1.1865 H   0  0
    7.7843  -11.3166   -1.2525 H   0  0
    8.7594  -11.1492   -2.7094 H   0  0
   16.4047   -2.1162   -0.1237 H   0  0
   16.8610    0.2211    0.5543 H   0  0
   15.0342    1.7121    1.2343 H   0  0
   12.6931    0.9211    1.2605 H   0  0
  1 18  1  0
  1 20  2  0
  1 15  1  0
  2 10  1  0
  2 19  1  0
  2 41  1  0
  2 42  1  0
  3  5  2  0
  3 26  1  0
  3  9  1  0
  4 15  1  0
  4 27  2  0
  4 31  1  0
  5 17  1  0
  5 24  1  0
  6 16  1  0
  6 13  1  0
  6 43  1  0
  6 44  1  0
  7 15  2  0
  7 23  1  0
  8 18  2  0
  9 13  1  0
  9 21  2  0
  9 12  2  0
 10 16  1  0
 11 14  1  0
 11 18  1  0
 11 45  1  0
 13 19  1  0
 14 26  2  0
 14 25  1  0
 16 46  1  0
 16 47  1  0
 17 25  2  0
 17 48  1  0
 19 49  1  0
 19 50  1  0
 20 23  1  0
 20 51  1  0
 22 23  1  0
 22 33  1  0
 22 36  2  0
 24 52  1  0
 24 53  1  0
 24 54  1  0
 25 55  1  0
 26 56  1  0
 27 28  1  0
 27 57  1  0
 28 29  2  0
 28 58  1  0
 29 30  1  0
 29 32  1  0
 30 31  2  0
 30 59  1  0
 31 60  1  0
 32 61  1  0
 32 62  1  0
 32 63  1  0
 33 34  1  0
 34 37  1  0
 34 35  2  0
 35 36  1  0
 35 40  1  0
 37 38  2  0
 37 64  1  0
 38 39  1  0
 38 65  1  0
 39 40  2  0
 39 66  1  0
 40 67  1  0
M  END
> <Name>
ligand_35

> <activity>
1

$$$$
ligand_36
  SciTegic10272118463D

 63 67  0  0  1  0            999 V2000
    0.9842    2.2199    0.9041 N   0  0
    0.6423    2.3701    2.2438 C   0  0
    0.9975    3.5293    2.7421 N   0  0
    1.6177    3.3998    0.5367 C   0  0
    1.6095    4.1866    1.7142 C   0  0
    1.9915    0.4404   -0.5307 C   0  0
    0.6882    1.0651    0.0280 C   0  0  2  0  0  0
    2.1801    3.8679   -0.6585 C   0  0
    2.7868   -0.1535    0.3854 N   0  0
    2.1800    5.4664    1.7067 C   0  0
    2.7414    5.1471   -0.6375 C   0  0
    4.0412   -0.7645    0.1944 C   0  0
    7.8847   -2.6795   -0.2402 C   0  0
   -0.0827    1.3581    3.0658 C   0  0
    2.7434    5.9310    0.5184 C   0  0
    6.5457   -2.0153   -0.0886 C   0  0
    6.2036   -1.3561    1.1011 C   0  0
    4.9623   -0.7350    1.2545 C   0  0
    2.2695    0.5442   -1.7268 O   0  0
    8.6821   -2.6232    0.7244 O   0  0
    4.3701   -1.4336   -0.9922 C   0  0
    5.6104   -2.0466   -1.1315 C   0  0
   -0.4056    1.4246   -1.0414 C   0  0
   -1.3197    1.6896    3.6263 C   0  0
    0.4706    0.0951    3.2964 C   0  0
    3.2963    5.6358   -1.7700 F   0  0
    3.2986    7.1641    0.4895 F   0  0
    8.1361   -3.2567   -1.3233 O   0  5
   -1.4551   -0.5034    4.6150 C   0  0
   -2.0080    0.7573    4.3982 C   0  0
   -0.2173   -0.8372    4.0683 C   0  0
   -2.3081   -1.6592    5.5714 Cl  0  0
    4.6465   -0.0362    2.5738 C   0  0
   -0.9006    0.1755   -1.8288 C   0  0
   -1.6322    2.1684   -0.4344 C   0  0
   -2.7129    2.5038   -1.4810 C   0  0
   -1.9779    0.5137   -2.8780 C   0  0
   -3.1716    1.2554   -2.2532 C   0  0
    0.2440    0.2918    0.6534 H   0  0
    2.1889    3.2766   -1.5621 H   0  0
    2.4971   -0.0851    1.3485 H   0  0
    2.1832    6.0809    2.5947 H   0  0
    6.9075   -1.3240    1.9214 H   0  0
    3.6707   -1.5012   -1.8118 H   0  0
    5.8332   -2.5526   -2.0604 H   0  0
    0.0454    2.1052   -1.7664 H   0  0
   -1.7498    2.6671    3.4599 H   0  0
    1.4331   -0.1655    2.8838 H   0  0
   -2.9659    1.0132    4.8269 H   0  0
    0.2101   -1.8137    4.2438 H   0  0
    5.5195    0.0217    3.2251 H   0  0
    4.3008    0.9835    2.3985 H   0  0
    3.8665   -0.5771    3.1099 H   0  0
   -0.0744   -0.3215   -2.3364 H   0  0
   -1.3038   -0.5582   -1.1287 H   0  0
   -2.0730    1.5580    0.3556 H   0  0
   -1.3234    3.0996    0.0413 H   0  0
   -3.5681    2.9751   -0.9951 H   0  0
   -2.3190    3.2400   -2.1835 H   0  0
   -1.5371    1.1302   -3.6631 H   0  0
   -2.3221   -0.3991   -3.3658 H   0  0
   -3.7036    0.5843   -1.5770 H   0  0
   -3.8852    1.5363   -3.0287 H   0  0
  1  2  1  0
  1  4  1  0
  1  7  1  0
  2  3  2  0
  2 14  1  0
  3  5  1  0
  4  5  1  0
  4  8  2  0
  5 10  2  0
  6  7  1  0
  6  9  1  0
  6 19  2  0
  7 23  1  0
  7 39  1  0
  8 11  1  0
  8 40  1  0
  9 12  1  0
  9 41  1  0
 10 15  1  0
 10 42  1  0
 11 15  2  0
 11 26  1  0
 12 18  2  0
 12 21  1  0
 13 16  1  0
 13 20  2  0
 13 28  1  0
 14 24  2  0
 14 25  1  0
 15 27  1  0
 16 17  2  0
 16 22  1  0
 17 18  1  0
 17 43  1  0
 18 33  1  0
 21 22  2  0
 21 44  1  0
 22 45  1  0
 23 34  1  0
 23 35  1  0
 23 46  1  0
 24 30  1  0
 24 47  1  0
 25 31  2  0
 25 48  1  0
 29 30  2  0
 29 31  1  0
 29 32  1  0
 30 49  1  0
 31 50  1  0
 33 51  1  0
 33 52  1  0
 33 53  1  0
 34 37  1  0
 34 54  1  0
 34 55  1  0
 35 36  1  0
 35 56  1  0
 35 57  1  0
 36 38  1  0
 36 58  1  0
 36 59  1  0
 37 38  1  0
 37 60  1  0
 37 61  1  0
 38 62  1  0
 38 63  1  0
M  CHG  1  28  -1
M  END
> <Name>
ligand_36

> <activity>
1

$$$$
ligand_37
  SciTegic10272118463D

 58 62  0  0  1  0            999 V2000
    2.5653   -3.3584    3.5781 F   0  0
    2.8665   -4.5243    2.9567 C   0  0
    3.6834   -5.4489    3.5992 C   0  0
    4.0061   -6.6544    2.9847 C   0  0
    3.5110   -6.9504    1.7206 C   0  0
    2.6941   -6.0298    1.0731 C   0  0
    2.3702   -4.8083    1.6813 C   0  0
    1.5493   -3.8374    1.0778 N   0  0
    1.3737   -3.5846   -0.2372 C   0  0
    1.9282   -4.2067   -1.1448 O   0  0
    0.4459   -2.3906   -0.5693 C   0  0  2  0  0  0
   -0.2657   -2.4616   -1.9673 C   0  0
   -1.1360   -3.7421   -2.1319 C   0  0
   -1.8485   -3.8131   -3.4969 C   0  0
   -2.6912   -2.5554   -3.7689 C   0  0
   -1.8490   -1.2760   -3.6297 C   0  0
   -1.1337   -1.2040   -2.2663 C   0  0
    1.1459   -1.1007   -0.3865 N   0  0
    0.8016   -0.0800    0.4921 C   0  0
    1.5725    0.9747    0.3932 N   0  0
    2.4803    0.6600   -0.5763 C   0  0
    3.5359    1.4359   -1.0736 C   0  0
    4.3312    0.8978   -2.0849 C   0  0
    5.3551    1.6303   -2.5793 F   0  0
    4.0866   -0.3792   -2.5944 C   0  0
    4.8801   -0.8633   -3.5769 F   0  0
    3.0416   -1.1746   -2.1177 C   0  0
    2.2448   -0.6361   -1.0980 C   0  0
   -0.3378   -0.1275    1.4505 C   0  0
   -0.3282   -1.0318    2.5161 C   0  0
   -1.3988   -1.0705    3.4051 C   0  0
   -2.4741   -0.2008    3.2304 C   0  0
   -3.8015   -0.2495    4.3321 Cl  0  0
   -2.4845    0.7100    2.1754 C   0  0
   -1.4136    0.7492    1.2863 C   0  0
    4.0704   -5.2297    4.5836 H   0  0
    4.6409   -7.3648    3.4938 H   0  0
    3.7555   -7.8894    1.2459 H   0  0
    2.3075   -6.2899    0.0994 H   0  0
    1.1179   -3.1935    1.7230 H   0  0
   -0.3574   -2.4266    0.1667 H   0  0
    0.5070   -2.5001   -2.7374 H   0  0
   -0.5317   -4.6417   -2.0148 H   0  0
   -1.8831   -3.7782   -1.3374 H   0  0
   -1.1051   -3.9303   -4.2872 H   0  0
   -2.4810   -4.7006   -3.5411 H   0  0
   -3.1303   -2.6077   -4.7660 H   0  0
   -3.5271   -2.5189   -3.0686 H   0  0
   -1.1071   -1.2415   -4.4291 H   0  0
   -2.4819   -0.3980   -3.7648 H   0  0
   -1.8764   -1.0783   -1.4766 H   0  0
   -0.5230   -0.3008   -2.2511 H   0  0
    3.7303    2.4257   -0.6881 H   0  0
    2.8701   -2.1590   -2.5262 H   0  0
    0.5093   -1.6974    2.6620 H   0  0
   -1.3921   -1.7698    4.2285 H   0  0
   -3.3183    1.3845    2.0461 H   0  0
   -1.4224    1.4555    0.4684 H   0  0
  1  2  1  0
  2  3  2  0
  2  7  1  0
  3  4  1  0
  3 36  1  0
  4  5  2  0
  4 37  1  0
  5  6  1  0
  5 38  1  0
  6  7  2  0
  6 39  1  0
  7  8  1  0
  8  9  1  0
  8 40  1  0
  9 10  2  0
  9 11  1  0
 11 12  1  0
 11 18  1  0
 11 41  1  0
 12 13  1  0
 12 17  1  0
 12 42  1  0
 13 14  1  0
 13 43  1  0
 13 44  1  0
 14 15  1  0
 14 45  1  0
 14 46  1  0
 15 16  1  0
 15 47  1  0
 15 48  1  0
 16 17  1  0
 16 49  1  0
 16 50  1  0
 17 51  1  0
 17 52  1  0
 18 19  1  0
 18 28  1  0
 19 20  2  0
 19 29  1  0
 20 21  1  0
 21 22  2  0
 21 28  1  0
 22 23  1  0
 22 53  1  0
 23 24  1  0
 23 25  2  0
 25 26  1  0
 25 27  1  0
 27 28  2  0
 27 54  1  0
 29 30  2  0
 29 35  1  0
 30 31  1  0
 30 55  1  0
 31 32  2  0
 31 56  1  0
 32 33  1  0
 32 34  1  0
 34 35  2  0
 34 57  1  0
 35 58  1  0
M  END
> <Name>
ligand_37

> <activity>
1

$$$$
ligand_38
  SciTegic10272118463D

 60 64  0  0  1  0            999 V2000
    1.8942    1.9885   -0.1955 C   0  0  2  0  0  0
    0.6794    2.8776    0.1681 C   0  0
    0.3866    2.7952    1.5643 O   0  0
   -0.8873    2.3905    1.8838 C   0  0
   -1.0633    1.1764    2.5467 C   0  0
   -2.3421    0.7376    2.8870 C   0  0
   -3.4742    1.5129    2.5862 C   0  0
   -3.2816    2.7465    1.9420 C   0  0
   -2.0029    3.1865    1.5995 C   0  0
   -1.8528    4.3832    0.9853 F   0  0
   -4.8521    1.0379    2.9469 C   0  0
   -4.9598   -0.0679    3.5252 O   0  0
   -5.8226    1.7716    2.6486 O   0  5
    2.3103    2.0323   -1.7023 C   0  0
    2.6574    3.4678   -2.1843 C   0  0
    3.0827    3.5151   -3.6660 C   0  0
    4.2401    2.5467   -3.9650 C   0  0
    3.9065    1.1158   -3.5094 C   0  0
    3.4901    1.0713   -2.0266 C   0  0
    1.6764    0.6094    0.2967 N   0  0
    2.2961    0.0538    1.4061 C   0  0
    3.2309    0.5325    2.3343 C   0  0
    3.6302   -0.3469    3.3439 C   0  0
    3.1253   -1.6461    3.4308 C   0  0
    2.1941   -2.1217    2.5080 C   0  0
    1.7746   -1.2604    1.4855 C   0  0
    0.8786   -1.4960    0.4843 N   0  0
    0.8234   -0.3769   -0.1944 C   0  0
   -0.0793   -0.2472   -1.3698 C   0  0
    0.3261   -0.7473   -2.6102 C   0  0
   -0.5141   -0.6316   -3.7143 C   0  0
   -1.7631   -0.0292   -3.5721 C   0  0
   -2.1805    0.4528   -2.3325 C   0  0
   -1.3398    0.3381   -1.2290 C   0  0
   -2.8036    0.1156   -4.9412 Cl  0  0
    3.5429   -2.4609    4.4264 F   0  0
    4.5309    0.0762    4.2599 F   0  0
    2.7428    2.3877    0.3610 H   0  0
    0.9111    3.9243   -0.0260 H   0  0
   -0.1717    2.6432   -0.4728 H   0  0
   -0.2072    0.5653    2.7902 H   0  0
   -2.4425   -0.2147    3.3888 H   0  0
   -4.1248    3.3784    1.7007 H   0  0
    1.4548    1.7190   -2.2990 H   0  0
    1.8037    4.1332   -2.0578 H   0  0
    3.4584    3.8784   -1.5672 H   0  0
    2.2278    3.2613   -4.2950 H   0  0
    3.3688    4.5315   -3.9391 H   0  0
    4.4695    2.5559   -5.0312 H   0  0
    5.1421    2.8897   -3.4556 H   0  0
    3.0977    0.7174   -4.1242 H   0  0
    4.7646    0.4633   -3.6753 H   0  0
    4.3492    1.3279   -1.4044 H   0  0
    3.2347    0.0426   -1.7721 H   0  0
    3.6318    1.5339    2.2877 H   0  0
    1.8069   -3.1269    2.5843 H   0  0
    1.2930   -1.2167   -2.7207 H   0  0
   -0.1976   -1.0094   -4.6754 H   0  0
   -3.1526    0.9112   -2.2242 H   0  0
   -1.6704    0.7031   -0.2681 H   0  0
  1  2  1  0
  1 14  1  0
  1 20  1  0
  1 38  1  0
  2  3  1  0
  2 39  1  0
  2 40  1  0
  3  4  1  0
  4  5  2  0
  4  9  1  0
  5  6  1  0
  5 41  1  0
  6  7  2  0
  6 42  1  0
  7  8  1  0
  7 11  1  0
  8  9  2  0
  8 43  1  0
  9 10  1  0
 11 12  2  0
 11 13  1  0
 14 15  1  0
 14 19  1  0
 14 44  1  0
 15 16  1  0
 15 45  1  0
 15 46  1  0
 16 17  1  0
 16 47  1  0
 16 48  1  0
 17 18  1  0
 17 49  1  0
 17 50  1  0
 18 19  1  0
 18 51  1  0
 18 52  1  0
 19 53  1  0
 19 54  1  0
 20 21  1  0
 20 28  1  0
 21 22  2  0
 21 26  1  0
 22 23  1  0
 22 55  1  0
 23 24  2  0
 23 37  1  0
 24 25  1  0
 24 36  1  0
 25 26  2  0
 25 56  1  0
 26 27  1  0
 27 28  2  0
 28 29  1  0
 29 30  2  0
 29 34  1  0
 30 31  1  0
 30 57  1  0
 31 32  2  0
 31 58  1  0
 32 33  1  0
 32 35  1  0
 33 34  2  0
 33 59  1  0
 34 60  1  0
M  CHG  1  13  -1
M  END
> <Name>
ligand_38

> <activity>
1

$$$$
ligand_39
  SciTegic10272118463D

 63 67  0  0  1  0            999 V2000
   -2.5110   -1.8813    2.1205 C   0  0
   -2.4140   -3.3655    1.7966 C   0  0
   -3.1073   -4.2910    2.5784 C   0  0
   -3.0296   -5.6652    2.3097 C   0  0
   -2.2387   -6.0951    1.2355 C   0  0
   -1.5452   -5.1784    0.4520 C   0  0
   -1.6255   -3.8065    0.7272 C   0  0
   -0.9690   -2.8431   -0.0142 O   0  0
    0.0988   -3.2228   -0.8800 C   0  0
    0.8419   -1.9524   -1.3685 C   0  0  2  0  0  0
    2.1248   -2.2084   -2.2218 C   0  0
    1.8025   -2.9479   -3.5469 C   0  0
    3.0459   -3.1326   -4.4386 C   0  0
    4.1884   -3.8351   -3.6830 C   0  0
    4.5330   -3.1033   -2.3732 C   0  0
    3.2943   -2.9053   -1.4759 C   0  0
    1.0881   -0.9925   -0.2662 N   0  0
    0.8115    0.3699   -0.3009 C   0  0
    1.0809    0.9897    0.8200 N   0  0
    1.5710    0.0228    1.6470 C   0  0
    2.0110    0.1538    2.9707 C   0  0
    2.4704   -0.9851    3.6294 C   0  0
    2.9000   -0.8805    4.9077 F   0  0
    2.4946   -2.2262    2.9919 C   0  0
    2.9505   -3.3073    3.6648 F   0  0
    2.0619   -2.3861    1.6735 C   0  0
    1.5981   -1.2422    1.0054 C   0  0
    0.2204    1.0913   -1.4631 C   0  0
    0.9572    1.2790   -2.6355 C   0  0
    0.3881    1.9500   -3.7147 C   0  0
   -0.9144    2.4366   -3.6174 C   0  0
   -1.6194    3.2678   -4.9554 Cl  0  0
   -1.6508    2.2605   -2.4471 C   0  0
   -1.0818    1.5896   -1.3678 C   0  0
   -3.7785   -6.6559    3.1545 C   0  0
   -4.4719   -6.2166    4.1007 O   0  5
   -3.6718   -7.8711    2.8696 O   0  0
   -3.1375   -1.6909    2.9928 H   0  0
   -1.5201   -1.4731    2.3244 H   0  0
   -2.9358   -1.3370    1.2764 H   0  0
   -3.7095   -3.9324    3.4019 H   0  0
   -2.1551   -7.1458    0.9950 H   0  0
   -0.9541   -5.5513   -0.3704 H   0  0
   -0.3149   -3.7626   -1.7328 H   0  0
    0.7793   -3.9078   -0.3778 H   0  0
    0.1206   -1.4670   -2.0274 H   0  0
    2.5035   -1.2287   -2.5135 H   0  0
    1.3804   -3.9304   -3.3315 H   0  0
    1.0383   -2.4041   -4.1041 H   0  0
    2.7836   -3.7032   -5.3303 H   0  0
    3.3882   -2.1582   -4.7909 H   0  0
    3.8984   -4.8630   -3.4594 H   0  0
    5.0725   -3.8992   -4.3185 H   0  0
    5.3014   -3.6548   -1.8300 H   0  0
    4.9677   -2.1302   -2.6077 H   0  0
    3.5951   -2.3192   -0.6087 H   0  0
    2.9727   -3.8766   -1.0992 H   0  0
    1.9947    1.1103    3.4717 H   0  0
    2.1002   -3.3589    1.2117 H   0  0
    1.9720    0.9188   -2.7103 H   0  0
    0.9573    2.0950   -4.6212 H   0  0
   -2.6589    2.6418   -2.3750 H   0  0
   -1.6536    1.4520   -0.4610 H   0  0
  1  2  1  0
  1 38  1  0
  1 39  1  0
  1 40  1  0
  2  3  2  0
  2  7  1  0
  3  4  1  0
  3 41  1  0
  4  5  2  0
  4 35  1  0
  5  6  1  0
  5 42  1  0
  6  7  2  0
  6 43  1  0
  7  8  1  0
  8  9  1  0
  9 10  1  0
  9 44  1  0
  9 45  1  0
 10 11  1  0
 10 17  1  0
 10 46  1  0
 11 12  1  0
 11 16  1  0
 11 47  1  0
 12 13  1  0
 12 48  1  0
 12 49  1  0
 13 14  1  0
 13 50  1  0
 13 51  1  0
 14 15  1  0
 14 52  1  0
 14 53  1  0
 15 16  1  0
 15 54  1  0
 15 55  1  0
 16 56  1  0
 16 57  1  0
 17 18  1  0
 17 27  1  0
 18 19  2  0
 18 28  1  0
 19 20  1  0
 20 21  2  0
 20 27  1  0
 21 22  1  0
 21 58  1  0
 22 23  1  0
 22 24  2  0
 24 25  1  0
 24 26  1  0
 26 27  2  0
 26 59  1  0
 28 29  2  0
 28 34  1  0
 29 30  1  0
 29 60  1  0
 30 31  2  0
 30 61  1  0
 31 32  1  0
 31 33  1  0
 33 34  2  0
 33 62  1  0
 34 63  1  0
 35 36  1  0
 35 37  2  0
M  CHG  1  36  -1
M  END
> <Name>
ligand_39

> <activity>
1

$$$$
ligand_40
  SciTegic10272118463D

 63 67  0  0  1  0            999 V2000
    5.9691   -7.5735    3.4595 O   0  5
    5.0549   -7.8821    2.6607 C   0  0
    4.8667   -9.0407    2.2234 O   0  0
    4.1262   -6.7959    2.1996 C   0  0
    4.2784   -5.4759    2.6551 C   0  0
    3.4169   -4.4655    2.2288 C   0  0
    2.3947   -4.7503    1.3224 C   0  0
    1.5355   -3.7058    0.9578 N   0  0
    1.2743   -3.3109   -0.3058 C   0  0
    1.7750   -3.8342   -1.3039 O   0  0
    0.3210   -2.0988   -0.4541 C   0  0  2  0  0  0
   -0.4448   -2.0037   -1.8291 C   0  0
   -1.3381   -3.2580   -2.0796 C   0  0
   -1.7882   -3.4537   -3.5411 C   0  0
   -3.0846   -2.7315   -3.9557 C   0  0
   -3.2985   -1.3088   -3.4055 C   0  0
   -2.0321   -0.4447   -3.2725 C   0  0
   -1.2433   -0.6723   -1.9661 C   0  0
    1.0227   -0.8382   -0.1245 N   0  0
    0.6951    0.0653    0.8804 C   0  0
    1.4654    1.1251    0.8982 N   0  0
    2.3527    0.9362   -0.1216 C   0  0
    3.3974    1.7708   -0.5405 C   0  0
    4.1696    1.3661   -1.6290 C   0  0
    5.1825    2.1576   -2.0500 F   0  0
    3.9128    0.1629   -2.2898 C   0  0
    4.6834   -0.1914   -3.3434 F   0  0
    2.8784   -0.6885   -1.8936 C   0  0
    2.1055   -0.2847   -0.7963 C   0  0
   -0.4295   -0.0973    1.8453 C   0  0
   -0.4300   -1.1491    2.7659 C   0  0
   -1.4870   -1.2902    3.6611 C   0  0
   -2.5384   -0.3755    3.6389 C   0  0
   -3.8487   -0.5507    4.7481 Cl  0  0
   -2.5386    0.6816    2.7305 C   0  0
   -1.4814    0.8229    1.8354 C   0  0
    2.2103   -6.0685    0.8774 C   0  0
    1.1898   -6.3910    0.0473 F   0  0
    3.0767   -7.0737    1.3080 C   0  0
    5.0674   -5.2201    3.3485 H   0  0
    3.5565   -3.4602    2.6003 H   0  0
    1.1518   -3.1615    1.7145 H   0  0
   -0.4541   -2.2403    0.2988 H   0  0
    0.3117   -1.9881   -2.6158 H   0  0
   -0.7871   -4.1592   -1.8131 H   0  0
   -2.2008   -3.2519   -1.4116 H   0  0
   -0.9775   -3.1562   -4.2079 H   0  0
   -1.9286   -4.5191   -3.7310 H   0  0
   -3.1161   -2.6998   -5.0459 H   0  0
   -3.9423   -3.3396   -3.6641 H   0  0
   -4.0129   -0.8007   -4.0550 H   0  0
   -3.7921   -1.3673   -2.4341 H   0  0
   -1.3846   -0.5687   -4.1418 H   0  0
   -2.3431    0.6011   -3.2872 H   0  0
   -1.9212   -0.5691   -1.1172 H   0  0
   -0.5516    0.1663   -1.8845 H   0  0
    3.6006    2.7049   -0.0383 H   0  0
    2.6964   -1.6139   -2.4191 H   0  0
    0.3884   -1.8526    2.7946 H   0  0
   -1.4884   -2.1041    4.3714 H   0  0
   -3.3538    1.3902    2.7194 H   0  0
   -1.4826    1.6430    1.1316 H   0  0
    2.9165   -8.0793    0.9449 H   0  0
  1  2  1  0
  2  3  2  0
  2  4  1  0
  4  5  2  0
  4 39  1  0
  5  6  1  0
  5 40  1  0
  6  7  2  0
  6 41  1  0
  7  8  1  0
  7 37  1  0
  8  9  1  0
  8 42  1  0
  9 10  2  0
  9 11  1  0
 11 12  1  0
 11 19  1  0
 11 43  1  0
 12 13  1  0
 12 18  1  0
 12 44  1  0
 13 14  1  0
 13 45  1  0
 13 46  1  0
 14 15  1  0
 14 47  1  0
 14 48  1  0
 15 16  1  0
 15 49  1  0
 15 50  1  0
 16 17  1  0
 16 51  1  0
 16 52  1  0
 17 18  1  0
 17 53  1  0
 17 54  1  0
 18 55  1  0
 18 56  1  0
 19 20  1  0
 19 29  1  0
 20 21  2  0
 20 30  1  0
 21 22  1  0
 22 23  2  0
 22 29  1  0
 23 24  1  0
 23 57  1  0
 24 25  1  0
 24 26  2  0
 26 27  1  0
 26 28  1  0
 28 29  2  0
 28 58  1  0
 30 31  2  0
 30 36  1  0
 31 32  1  0
 31 59  1  0
 32 33  2  0
 32 60  1  0
 33 34  1  0
 33 35  1  0
 35 36  2  0
 35 61  1  0
 36 62  1  0
 37 38  1  0
 37 39  2  0
 39 63  1  0
M  CHG  1   1  -1
M  END
> <Name>
ligand_40

> <activity>
1

$$$$
ligand_41
  SciTegic10272118463D

 65 69  0  0  1  0            999 V2000
    8.9415   -4.2131   -0.1299 C   0  0
   -0.1422   -2.7483    2.5609 C   0  0
    3.1963   -5.3200   -0.2564 C   0  0
    9.6814   -6.4538   -1.3060 C   0  0
    2.9462   -6.6625   -0.6097 C   0  0
   14.5018   -2.3052    0.4981 C   0  0
   14.4220   -1.5121    1.6405 C   0  0
    1.6508   -4.9993    2.6783 C   0  0
   11.1196   -4.8008   -0.2533 N   0  0
    6.9107   -3.1282   -0.4571 O   0  0
    1.9224   -4.0792    0.0765 S   0  0
   -0.3734   -3.8596    3.4293 O   0  0
    6.9402   -5.4137   -0.2074 N   0  0
    2.3793   -2.8386   -0.5616 O   0  0
    1.9913   -3.8265    1.8337 N   0  0
    5.5870   -5.7690   -0.3399 C   0  0
    9.8940   -5.1674   -0.5731 C   0  0
    0.1318   -5.1025    2.9366 C   0  0
    4.0182   -7.5338   -0.8235 C   0  0
    7.5082   -4.1908   -0.2817 C   0  0
   13.3775   -2.9981    0.0568 C   0  0
    1.3722   -2.5730    2.3285 C   0  0
    9.7129   -3.1843    0.3891 C   0  0
   12.0990   -2.0959    1.9098 C   0  0
    0.5956   -4.6098   -0.2540 O   0  0
   12.1707   -2.8959    0.7625 C   0  0
   11.0212   -3.5915    0.3216 N   0  0
    1.5421   -7.2305   -0.7609 C   0  0
    5.3287   -7.0929   -0.6870 C   0  0
    4.5189   -4.8913   -0.1141 C   0  0
   13.2263   -1.4052    2.3472 C   0  0
    8.9000   -6.4798   -2.4652 C   0  0
    8.6866   -7.6791   -3.1389 C   0  0
    9.2619   -8.8576   -2.6612 C   0  0
   10.0497   -8.8357   -1.5090 C   0  0
   10.2613   -7.6359   -0.8349 C   0  0
   15.5148   -0.8403    2.0674 F   0  0
    9.0236  -10.1664   -3.3919 C   0  0
   -0.6648   -2.9160    1.6174 H   0  0
   -0.5650   -1.8508    3.0126 H   0  0
   15.4329   -2.3813   -0.0437 H   0  0
    2.1851   -4.8879    3.6225 H   0  0
    2.0397   -5.9029    2.2092 H   0  0
    7.5764   -6.1910   -0.1082 H   0  0
   -0.4063   -5.3679    2.0257 H   0  0
   -0.0751   -5.8811    3.6709 H   0  0
    3.8413   -8.5649   -1.0939 H   0  0
   13.4486   -3.6078   -0.8328 H   0  0
    1.5785   -1.7686    1.6223 H   0  0
    1.8709   -2.3031    3.2600 H   0  0
    9.4457   -2.2238    0.8055 H   0  0
   11.1792   -2.0093    2.4704 H   0  0
    1.5520   -8.2996   -0.9768 H   0  0
    0.9704   -7.0966    0.1577 H   0  0
    1.0180   -6.7421   -1.5826 H   0  0
    6.1400   -7.7870   -0.8573 H   0  0
    4.6990   -3.8709    0.1876 H   0  0
   13.1751   -0.7889    3.2326 H   0  0
    8.4522   -5.5720   -2.8435 H   0  0
    8.0753   -7.6895   -4.0297 H   0  0
   10.4969   -9.7448   -1.1337 H   0  0
   10.8698   -7.6272    0.0580 H   0  0
    9.8613  -10.8523   -3.2592 H   0  0
    8.1234  -10.6497   -3.0111 H   0  0
    8.8964  -10.0029   -4.4628 H   0  0
  1 20  1  0
  1 23  2  0
  1 17  1  0
  2 12  1  0
  2 22  1  0
  2 39  1  0
  2 40  1  0
  3  5  1  0
  3 30  2  0
  3 11  1  0
  4 17  1  0
  4 32  2  0
  4 36  1  0
  5 19  2  0
  5 28  1  0
  6  7  2  0
  6 21  1  0
  6 41  1  0
  7 31  1  0
  7 37  1  0
  8 18  1  0
  8 15  1  0
  8 42  1  0
  8 43  1  0
  9 17  2  0
  9 27  1  0
 10 20  2  0
 11 15  1  0
 11 25  2  0
 11 14  2  0
 12 18  1  0
 13 16  1  0
 13 20  1  0
 13 44  1  0
 15 22  1  0
 16 30  1  0
 16 29  2  0
 18 45  1  0
 18 46  1  0
 19 29  1  0
 19 47  1  0
 21 26  2  0
 21 48  1  0
 22 49  1  0
 22 50  1  0
 23 27  1  0
 23 51  1  0
 24 31  2  0
 24 26  1  0
 24 52  1  0
 26 27  1  0
 28 53  1  0
 28 54  1  0
 28 55  1  0
 29 56  1  0
 30 57  1  0
 31 58  1  0
 32 33  1  0
 32 59  1  0
 33 34  2  0
 33 60  1  0
 34 35  1  0
 34 38  1  0
 35 36  2  0
 35 61  1  0
 36 62  1  0
 38 63  1  0
 38 64  1  0
 38 65  1  0
M  END
> <Name>
ligand_41

> <activity>
1

$$$$
ligand_42
  SciTegic10272118463D

 68 72  0  0  1  0            999 V2000
    8.6222   -4.2839    0.0111 C   0  0
    1.7837   -4.5709    3.8805 C   0  0
    2.8392   -5.0160   -0.4030 C   0  0
    9.2941   -6.5667   -1.1238 C   0  0
    2.5259   -6.1639   -1.1559 C   0  0
   14.2515   -2.6074    0.7474 C   0  0
   14.1474   -1.2131    0.6966 C   0  0
   -0.4987   -4.6333    2.1212 C   0  0
   10.7678   -4.7222   -0.5443 N   0  0
    6.6726   -3.9115    1.2243 O   0  0
    1.5739   -4.0098    0.4004 S   0  0
    0.4665   -4.2256    4.3150 O   0  0
    6.5625   -5.0753   -0.7545 N   0  0
    2.2419   -2.9126    1.1110 O   0  0
    0.8247   -5.0689    1.6144 N   0  0
    5.1982   -5.3965   -0.8487 C   0  0
    9.5412   -5.2059   -0.5542 C   0  0
   -0.3521   -3.6464    3.2969 C   0  0
    3.5488   -6.9030   -1.7556 C   0  0
    7.2018   -4.4010    0.2253 C   0  0
   13.1028   -3.3759    0.5416 C   0  0
    1.7164   -5.5592    2.6956 C   0  0
    9.4225   -3.2457    0.4634 C   0  0
   11.7868   -1.3626    0.2401 C   0  0
    0.5619   -3.7018   -0.6169 O   0  0
   11.8709   -2.7583    0.2873 C   0  0
   10.7081   -3.5362    0.0824 N   0  0
    1.0909   -6.6351   -1.3572 C   0  0
    4.8766   -6.5200   -1.6075 C   0  0
    4.1776   -4.6388   -0.2596 C   0  0
   12.9266   -0.5918    0.4447 C   0  0
    9.7869   -6.8999   -2.3894 C   0  0
    9.5434   -8.1619   -2.9248 C   0  0
    8.8074   -9.0975   -2.1957 C   0  0
    8.3238   -8.7737   -0.9271 C   0  0
    8.5692   -7.5123   -0.3920 C   0  0
    8.5428  -10.4740   -2.7779 C   0  0
   15.5847   -3.2988    1.0272 C   0  0
   15.4593   -4.1124    2.0763 F   0  0
   15.9396   -4.0233   -0.0343 F   0  0
   16.5647   -2.4316    1.2886 F   0  0
    2.3161   -3.6598    3.6046 H   0  0
    2.3227   -5.0180    4.7158 H   0  0
   15.0191   -0.5940    0.8521 H   0  0
   -1.0410   -5.5245    2.4387 H   0  0
   -1.0704   -4.1979    1.3015 H   0  0
    7.1456   -5.4641   -1.4810 H   0  0
    0.0980   -2.7088    2.9652 H   0  0
   -1.3285   -3.4081    3.7189 H   0  0
    3.3196   -7.7811   -2.3419 H   0  0
   13.1715   -4.4543    0.5833 H   0  0
    2.7057   -5.7549    2.2816 H   0  0
    1.3259   -6.5207    3.0304 H   0  0
    9.1884   -2.3371    0.9990 H   0  0
   10.8469   -0.8687    0.0395 H   0  0
    1.0460   -7.5873   -1.8873 H   0  0
    0.5840   -6.7783   -0.4042 H   0  0
    0.5285   -5.9115   -1.9470 H   0  0
    5.6521   -7.1081   -2.0783 H   0  0
    4.4169   -3.7495    0.3021 H   0  0
   12.8654    0.4860    0.4070 H   0  0
   10.3535   -6.1793   -2.9616 H   0  0
    9.9261   -8.4090   -3.9044 H   0  0
    7.7598   -9.4959   -0.3548 H   0  0
    8.1914   -7.2705    0.5911 H   0  0
    9.3360  -11.1630   -2.4866 H   0  0
    7.5933  -10.8768   -2.4230 H   0  0
    8.5019  -10.4417   -3.8675 H   0  0
  1 20  1  0
  1 23  2  0
  1 17  1  0
  2 12  1  0
  2 22  1  0
  2 42  1  0
  2 43  1  0
  3  5  2  0
  3 30  1  0
  3 11  1  0
  4 17  1  0
  4 32  2  0
  4 36  1  0
  5 19  1  0
  5 28  1  0
  6  7  2  0
  6 21  1  0
  6 38  1  0
  7 31  1  0
  7 44  1  0
  8 18  1  0
  8 15  1  0
  8 45  1  0
  8 46  1  0
  9 17  2  0
  9 27  1  0
 10 20  2  0
 11 15  1  0
 11 25  2  0
 11 14  2  0
 12 18  1  0
 13 16  1  0
 13 20  1  0
 13 47  1  0
 15 22  1  0
 16 30  2  0
 16 29  1  0
 18 48  1  0
 18 49  1  0
 19 29  2  0
 19 50  1  0
 21 26  2  0
 21 51  1  0
 22 52  1  0
 22 53  1  0
 23 27  1  0
 23 54  1  0
 24 31  2  0
 24 26  1  0
 24 55  1  0
 26 27  1  0
 28 56  1  0
 28 57  1  0
 28 58  1  0
 29 59  1  0
 30 60  1  0
 31 61  1  0
 32 33  1  0
 32 62  1  0
 33 34  2  0
 33 63  1  0
 34 35  1  0
 34 37  1  0
 35 36  2  0
 35 64  1  0
 36 65  1  0
 37 66  1  0
 37 67  1  0
 37 68  1  0
 38 39  1  0
 38 40  1  0
 38 41  1  0
M  END
> <Name>
ligand_42

> <activity>
1

$$$$
ligand_43
  SciTegic10272118463D

 77 82  0  0  1  0            999 V2000
    6.0428    4.2179    1.3751 C   0  0
    6.3815    3.0424    0.7071 C   0  0
    5.4219    2.0862    0.3686 C   0  0
    4.0927    2.3500    0.7355 C   0  0
    3.7610    3.5489    1.3941 C   0  0
    4.7247    4.5034    1.7330 C   0  0
    2.3918    3.5382    1.5755 N   0  3
    1.8590    2.3872    1.0588 C   0  0
    2.9084    1.6120    0.5667 N   0  0
    2.8444    0.2595   -0.0507 C   0  0  2  0  0  0
    1.6347    0.0369   -0.9942 C   0  0
    1.5095    0.7507   -1.9900 O   0  0
    0.7376   -0.9085   -0.6582 N   0  0
   -0.5225   -1.2051   -1.3385 C   0  0
   -0.3642   -1.8383   -2.7437 C   0  0
   -1.7213   -2.1309   -3.4143 C   0  0
   -2.6251   -3.0002   -2.5209 C   0  0
   -2.8084   -2.3806   -1.1235 C   0  0
   -1.4585   -2.0601   -0.4513 C   0  0
    3.1431   -0.8986    0.9771 C   0  0
    4.6331   -0.9856    1.4004 C   0  0
    4.9194   -2.1955    2.3121 C   0  0
    4.0065   -2.2021    3.5516 C   0  0
    2.5203   -2.1141    3.1597 C   0  0
    2.2374   -0.9109    2.2379 C   0  0
    0.3927    2.1398    1.0067 C   0  0
   -0.2678    1.4150    1.9971 C   0  0
   -1.6368    1.1824    1.8914 C   0  0
   -2.3662    1.6775    0.7991 C   0  0
   -3.8507    1.4344    0.7282 C   0  0
   -4.4679    1.1724    1.7644 O   0  0
   -4.6069    1.5195   -0.5702 C   0  0
   -5.9637    1.8591   -0.5590 C   0  0
   -6.6987    1.9006   -1.7372 C   0  0
   -6.0952    1.5845   -2.9455 C   0  0
   -4.7574    1.2189   -2.9723 C   0  0
   -4.0221    1.1799   -1.7947 C   0  0
   -1.7007    2.4612   -0.1544 C   0  0
   -0.3306    2.6808   -0.0566 C   0  0
    6.8203    4.9287    1.6152 H   0  0
    7.4147    2.8679    0.4435 H   0  0
    5.7102    1.1866   -0.1537 H   0  0
    4.4708    5.4230    2.2400 H   0  0
    3.6666    0.2328   -0.7674 H   0  0
    0.9309   -1.4658    0.1606 H   0  0
   -1.0090   -0.2361   -1.4668 H   0  0
    0.2199   -1.1830   -3.3909 H   0  0
    0.2068   -2.7647   -2.6619 H   0  0
   -2.2271   -1.1895   -3.6352 H   0  0
   -1.5633   -2.6234   -4.3746 H   0  0
   -3.5965   -3.1412   -2.9967 H   0  0
   -2.1874   -3.9949   -2.4218 H   0  0
   -3.3993   -1.4690   -1.2062 H   0  0
   -3.3874   -3.0547   -0.4910 H   0  0
   -0.9578   -2.9959   -0.1969 H   0  0
   -1.6403   -1.5514    0.4967 H   0  0
    2.9561   -1.8388    0.4529 H   0  0
    5.2734   -1.0453    0.5196 H   0  0
    4.9201   -0.0810    1.9362 H   0  0
    4.7743   -3.1184    1.7482 H   0  0
    5.9655   -2.1901    2.6211 H   0  0
    4.1850   -3.1010    4.1431 H   0  0
    4.2623   -1.3585    4.1949 H   0  0
    2.2246   -3.0346    2.6536 H   0  0
    1.9026   -2.0497    4.0564 H   0  0
    2.3864    0.0090    2.8046 H   0  0
    1.1864   -0.9361    1.9559 H   0  0
    0.2715    1.0292    2.8489 H   0  0
   -2.1222    0.6066    2.6674 H   0  0
   -6.4644    2.1036    0.3677 H   0  0
   -7.7432    2.1750   -1.7116 H   0  0
   -6.6676    1.6134   -3.8611 H   0  0
   -4.2887    0.9562   -3.9094 H   0  0
   -2.9920    0.8634   -1.8534 H   0  0
   -2.2292    2.9172   -0.9786 H   0  0
    0.1683    3.2673   -0.8152 H   0  0
    1.8189    4.2584    1.9918 H   0  0
  1  2  1  0
  1  6  2  0
  1 40  1  0
  2  3  2  0
  2 41  1  0
  3  4  1  0
  3 42  1  0
  4  5  2  0
  4  9  1  0
  5  6  1  0
  5  7  1  0
  6 43  1  0
  7  8  2  0
  7 77  1  0
  8  9  1  0
  8 26  1  0
  9 10  1  0
 10 11  1  0
 10 20  1  0
 10 44  1  0
 11 12  2  0
 11 13  1  0
 13 14  1  0
 13 45  1  0
 14 15  1  0
 14 19  1  0
 14 46  1  0
 15 16  1  0
 15 47  1  0
 15 48  1  0
 16 17  1  0
 16 49  1  0
 16 50  1  0
 17 18  1  0
 17 51  1  0
 17 52  1  0
 18 19  1  0
 18 53  1  0
 18 54  1  0
 19 55  1  0
 19 56  1  0
 20 21  1  0
 20 25  1  0
 20 57  1  0
 21 22  1  0
 21 58  1  0
 21 59  1  0
 22 23  1  0
 22 60  1  0
 22 61  1  0
 23 24  1  0
 23 62  1  0
 23 63  1  0
 24 25  1  0
 24 64  1  0
 24 65  1  0
 25 66  1  0
 25 67  1  0
 26 27  2  0
 26 39  1  0
 27 28  1  0
 27 68  1  0
 28 29  2  0
 28 69  1  0
 29 30  1  0
 29 38  1  0
 30 31  2  0
 30 32  1  0
 32 33  2  0
 32 37  1  0
 33 34  1  0
 33 70  1  0
 34 35  2  0
 34 71  1  0
 35 36  1  0
 35 72  1  0
 36 37  2  0
 36 73  1  0
 37 74  1  0
 38 39  2  0
 38 75  1  0
 39 76  1  0
M  CHG  1   7   1
M  END
> <Name>
ligand_43

> <activity>
1

$$$$
ligand_44
  SciTegic10272118463D

 60 64  0  0  1  0            999 V2000
   -3.0885   -1.2175    4.5567 O   0  5
   -2.6635   -2.3731    4.3267 C   0  0
   -2.4599   -3.2357    5.2117 O   0  0
   -2.3763   -2.7463    2.9018 C   0  0
   -2.5866   -1.8293    1.8604 C   0  0
   -2.2942   -2.1691    0.5411 C   0  0
   -1.7590   -3.4192    0.2320 C   0  0
   -1.4482   -3.6851   -1.0810 O   0  0
   -0.0590   -3.7752   -1.4174 C   0  0
    0.6863   -2.4102   -1.5356 C   0  0  2  0  0  0
    2.0584   -2.4664   -2.2866 C   0  0
    1.8750   -2.6801   -3.8134 C   0  0
    3.2115   -2.6663   -4.5801 C   0  0
    4.2076   -3.6870   -4.0019 C   0  0
    4.4222   -3.4703   -2.4934 C   0  0
    3.0935   -3.4685   -1.7097 C   0  0
    0.8094   -1.6946   -0.2427 N   0  0
    0.4762   -0.3595   -0.0185 C   0  0
    0.6322    0.0146    1.2264 N   0  0
    1.0998   -1.0888    1.8739 C   0  0
    1.4152   -1.2260    3.2319 C   0  0
    1.8779   -2.4611    3.6803 C   0  0
    2.1862   -2.6162    4.9881 F   0  0
    2.0302   -3.5346    2.8028 C   0  0
    2.4857   -4.7170    3.2757 F   0  0
    1.7245   -3.4253    1.4445 C   0  0
    1.2474   -2.1861    0.9870 C   0  0
   -0.0738    0.5864   -1.0384 C   0  0
    0.6306    0.8874   -2.2085 C   0  0
    0.0940    1.7712   -3.1410 C   0  0
   -1.1444    2.3626   -2.9004 C   0  0
   -1.8094    3.4577   -4.0566 Cl  0  0
   -1.8473    2.0806   -1.7310 C   0  0
   -1.3097    1.1969   -0.7992 C   0  0
   -1.5990   -4.3674    1.2531 C   0  0
   -1.0447   -5.9707    0.9173 Cl  0  0
   -1.8939   -4.0237    2.5736 C   0  0
   -2.9695   -0.8392    2.0645 H   0  0
   -2.4528   -1.4464   -0.2452 H   0  0
   -0.0519   -4.2583   -2.3932 H   0  0
    0.4642   -4.4753   -0.7741 H   0  0
    0.0184   -1.8052   -2.1491 H   0  0
    2.5212   -1.4851   -2.1811 H   0  0
    1.3778   -3.6315   -4.0035 H   0  0
    1.2205   -1.9096   -4.2238 H   0  0
    3.0372   -2.8741   -5.6366 H   0  0
    3.6468   -1.6668   -4.5344 H   0  0
    3.8353   -4.6979   -4.1751 H   0  0
    5.1605   -3.6183   -4.5281 H   0  0
    5.0861   -4.2399   -2.0977 H   0  0
    4.9341   -2.5196   -2.3362 H   0  0
    3.3203   -3.2229   -0.6745 H   0  0
    2.6789   -4.4772   -1.7104 H   0  0
    1.2991   -0.4000    3.9177 H   0  0
    1.8564   -4.2794    0.8011 H   0  0
    1.5985    0.4524   -2.3975 H   0  0
    0.6402    1.9997   -4.0444 H   0  0
   -2.8045    2.5451   -1.5447 H   0  0
   -1.8571    0.9828    0.1079 H   0  0
   -1.7407   -4.7644    3.3461 H   0  0
  1  2  1  0
  2  3  2  0
  2  4  1  0
  4  5  2  0
  4 37  1  0
  5  6  1  0
  5 38  1  0
  6  7  2  0
  6 39  1  0
  7  8  1  0
  7 35  1  0
  8  9  1  0
  9 10  1  0
  9 40  1  0
  9 41  1  0
 10 11  1  0
 10 17  1  0
 10 42  1  0
 11 12  1  0
 11 16  1  0
 11 43  1  0
 12 13  1  0
 12 44  1  0
 12 45  1  0
 13 14  1  0
 13 46  1  0
 13 47  1  0
 14 15  1  0
 14 48  1  0
 14 49  1  0
 15 16  1  0
 15 50  1  0
 15 51  1  0
 16 52  1  0
 16 53  1  0
 17 18  1  0
 17 27  1  0
 18 19  2  0
 18 28  1  0
 19 20  1  0
 20 21  2  0
 20 27  1  0
 21 22  1  0
 21 54  1  0
 22 23  1  0
 22 24  2  0
 24 25  1  0
 24 26  1  0
 26 27  2  0
 26 55  1  0
 28 29  2  0
 28 34  1  0
 29 30  1  0
 29 56  1  0
 30 31  2  0
 30 57  1  0
 31 32  1  0
 31 33  1  0
 33 34  2  0
 33 58  1  0
 34 59  1  0
 35 36  1  0
 35 37  2  0
 37 60  1  0
M  CHG  1   1  -1
M  END
> <Name>
ligand_44

> <activity>
1

$$$$
ligand_45
  SciTegic10272118463D

 57 61  0  0  1  0            999 V2000
   -3.1418    6.3298    2.7417 O   0  5
   -2.0737    5.7591    3.0624 C   0  0
   -1.6380    5.6968    4.2353 O   0  0
   -1.2666    5.1100    1.9745 C   0  0
   -1.7016    5.1482    0.6404 C   0  0
   -0.9544    4.5459   -0.3683 C   0  0
    0.2351    3.8878   -0.0570 C   0  0
    1.0629    3.2427   -1.1600 C   0  0
    1.0905    1.7752   -1.0929 N   0  0
    2.1895    1.1125   -0.6512 C   0  0
    3.2638    1.5966   -0.2876 O   0  0
    1.8451   -0.3969   -0.6791 C   0  0
    1.9730   -1.0169    0.7432 C   0  0
    3.4316   -1.2273    1.2035 C   0  0
    4.2553   -1.9335    0.1880 N   0  0
    4.2059   -1.3535   -1.1792 C   0  0
    2.7617   -1.1513   -1.6854 C   0  0
    5.8514   -2.4840    0.7362 S   0  0
    5.6769   -3.1417    2.0356 O   0  0
    6.4542   -3.2639   -0.3502 O   0  0
    6.8291   -0.9563    0.9764 C   0  0
    6.8349   -0.2740    2.2127 C   0  0
    5.9042   -0.7660    3.5873 Cl  0  0
    7.5929    0.8810    2.3853 C   0  0
    8.3477    1.4032    1.3502 C   0  0
    8.3291    0.7656    0.1225 C   0  0
    7.5798   -0.3906   -0.0774 C   0  0
    7.6190   -1.0348   -1.6840 Cl  0  0
    0.4156   -0.3911   -1.1424 C   0  0
   -0.4899   -1.4306   -1.3553 C   0  0
   -1.7811   -1.1321   -1.7915 C   0  0
   -3.0241   -2.5431   -2.0846 Br  0  0
   -2.1712    0.1890   -2.0156 C   0  0
   -1.2642    1.2249   -1.8033 C   0  0
    0.0247    0.9157   -1.3654 C   0  0
    0.6868    3.8533    1.2625 C   0  0
   -0.0606    4.4556    2.2708 C   0  0
   -2.6223    5.6471    0.3723 H   0  0
   -1.3051    4.5925   -1.3889 H   0  0
    2.0711    3.6562   -1.0972 H   0  0
    0.6700    3.5400   -2.1331 H   0  0
    1.4363   -0.4191    1.4826 H   0  0
    1.4781   -1.9896    0.7512 H   0  0
    3.9145   -0.2735    1.4172 H   0  0
    3.4551   -1.8041    2.1284 H   0  0
    4.7477   -0.4076   -1.1580 H   0  0
    4.7523   -2.0132   -1.8537 H   0  0
    2.3356   -2.1367   -1.8819 H   0  0
    2.7781   -0.6502   -2.6553 H   0  0
    7.5899    1.3892    3.3389 H   0  0
    8.9294    2.3020    1.4937 H   0  0
    8.9018    1.1836   -0.6929 H   0  0
   -0.2061   -2.4590   -1.1868 H   0  0
   -3.1731    0.4093   -2.3535 H   0  0
   -1.5714    2.2441   -1.9818 H   0  0
    1.6141    3.3565    1.5094 H   0  0
    0.3097    4.4087    3.2853 H   0  0
  1  2  1  0
  2  3  2  0
  2  4  1  0
  4  5  2  0
  4 37  1  0
  5  6  1  0
  5 38  1  0
  6  7  2  0
  6 39  1  0
  7  8  1  0
  7 36  1  0
  8  9  1  0
  8 40  1  0
  8 41  1  0
  9 10  1  0
  9 35  1  0
 10 11  2  0
 10 12  1  0
 12 13  1  0
 12 17  1  0
 12 29  1  0
 13 14  1  0
 13 42  1  0
 13 43  1  0
 14 15  1  0
 14 44  1  0
 14 45  1  0
 15 16  1  0
 15 18  1  0
 16 17  1  0
 16 46  1  0
 16 47  1  0
 17 48  1  0
 17 49  1  0
 18 19  2  0
 18 20  2  0
 18 21  1  0
 21 22  2  0
 21 27  1  0
 22 23  1  0
 22 24  1  0
 24 25  2  0
 24 50  1  0
 25 26  1  0
 25 51  1  0
 26 27  2  0
 26 52  1  0
 27 28  1  0
 29 30  2  0
 29 35  1  0
 30 31  1  0
 30 53  1  0
 31 32  1  0
 31 33  2  0
 33 34  1  0
 33 54  1  0
 34 35  2  0
 34 55  1  0
 36 37  2  0
 36 56  1  0
 37 57  1  0
M  CHG  1   1  -1
M  END
> <Name>
ligand_45

> <activity>
1

$$$$
ligand_46
  SciTegic10272118463D

 60 64  0  0  1  0            999 V2000
    0.9503    2.1760    0.7811 N   0  0
    0.7253    2.5685    2.0956 C   0  0
    1.2472    3.7338    2.3885 N   0  0
    1.6971    3.1947    0.2024 C   0  0
    1.8625    4.1441    1.2413 C   0  0
    1.6130    0.0428   -0.3405 C   0  0
    0.4481    0.9513    0.1215 C   0  0  2  0  0  0
    2.2309    3.4042   -1.0766 C   0  0
    2.1543   -0.7424    0.6160 N   0  0
    2.5801    5.3245    1.0064 C   0  0
    2.9414    4.5894   -1.2826 C   0  0
    3.2443   -1.6268    0.5143 C   0  0
    6.6218   -4.3107    0.4285 C   0  0
   -0.0478    1.7847    3.0991 C   0  0
    3.1144    5.5302   -0.2652 C   0  0
    5.4451   -3.3773    0.4578 C   0  0
    3.9845   -1.8636    1.6768 C   0  0
    5.0749   -2.7287    1.6454 C   0  0
    2.0105    0.0965   -1.5056 O   0  0
    7.2583   -4.4875    1.4929 O   0  0
    3.6002   -2.2751   -0.6762 C   0  0
    4.6911   -3.1392   -0.7009 C   0  0
   -0.6133    1.2918   -0.9840 C   0  0
    0.4338    0.5555    3.5575 C   0  0
   -1.2530    2.2921    3.5915 C   0  0
    3.4737    4.8283   -2.5028 F   0  0
    3.8099    6.6634   -0.5132 F   0  0
    3.6554   -1.2579    2.8435 F   0  0
    6.9061   -4.8650   -0.6583 O   0  5
   -1.5032    0.3336    4.9732 C   0  0
   -1.9832    1.5639    4.5272 C   0  0
   -0.2962   -0.1723    4.4933 C   0  0
   -2.4086   -0.5687    6.1326 Cl  0  0
   -1.2608    0.0197   -1.6057 C   0  0
   -1.7320    2.2447   -0.4697 C   0  0
   -2.7879    2.5692   -1.5445 C   0  0
   -2.3153    0.3467   -2.6814 C   0  0
   -3.4026    1.2950   -2.1480 C   0  0
   -0.0945    0.3808    0.8756 H   0  0
    2.1096    2.6910   -1.8778 H   0  0
    1.8003   -0.6232    1.5529 H   0  0
    2.7162    6.0590    1.7862 H   0  0
    5.6306   -2.8905    2.5584 H   0  0
    3.0368   -2.1347   -1.5861 H   0  0
    4.9413   -3.6256   -1.6334 H   0  0
   -0.1018    1.8156   -1.7937 H   0  0
    1.3750    0.1677    3.1977 H   0  0
   -1.6256    3.2458    3.2459 H   0  0
   -2.9173    1.9535    4.9048 H   0  0
    0.0755   -1.1229    4.8470 H   0  0
   -0.5029   -0.6228   -2.0540 H   0  0
   -1.7274   -0.5729   -0.8170 H   0  0
   -2.2245    1.7946    0.3940 H   0  0
   -1.3064    3.1846   -0.1169 H   0  0
   -3.5732    3.1946   -1.1181 H   0  0
   -2.3263    3.1597   -2.3376 H   0  0
   -1.8242    0.8045   -3.5417 H   0  0
   -2.7720   -0.5738   -3.0469 H   0  0
   -3.9931    0.7807   -1.3881 H   0  0
   -4.0960    1.5568   -2.9482 H   0  0
  1  2  1  0
  1  4  1  0
  1  7  1  0
  2  3  2  0
  2 14  1  0
  3  5  1  0
  4  5  1  0
  4  8  2  0
  5 10  2  0
  6  7  1  0
  6  9  1  0
  6 19  2  0
  7 23  1  0
  7 39  1  0
  8 11  1  0
  8 40  1  0
  9 12  1  0
  9 41  1  0
 10 15  1  0
 10 42  1  0
 11 15  2  0
 11 26  1  0
 12 17  2  0
 12 21  1  0
 13 16  1  0
 13 20  2  0
 13 29  1  0
 14 24  2  0
 14 25  1  0
 15 27  1  0
 16 18  2  0
 16 22  1  0
 17 18  1  0
 17 28  1  0
 18 43  1  0
 21 22  2  0
 21 44  1  0
 22 45  1  0
 23 34  1  0
 23 35  1  0
 23 46  1  0
 24 32  1  0
 24 47  1  0
 25 31  2  0
 25 48  1  0
 30 31  1  0
 30 32  2  0
 30 33  1  0
 31 49  1  0
 32 50  1  0
 34 37  1  0
 34 51  1  0
 34 52  1  0
 35 36  1  0
 35 53  1  0
 35 54  1  0
 36 38  1  0
 36 55  1  0
 36 56  1  0
 37 38  1  0
 37 57  1  0
 37 58  1  0
 38 59  1  0
 38 60  1  0
M  CHG  1  29  -1
M  END
> <Name>
ligand_46

> <activity>
1

$$$$
ligand_47
  SciTegic10272118463D

 60 64  0  0  1  0            999 V2000
    1.8113    1.7565   -0.0353 C   0  0  2  0  0  0
    0.3664    2.2747    0.1863 C   0  0
   -0.2050    1.6790    1.3505 O   0  0
   -1.5476    1.8626    1.6172 C   0  0
   -2.0723    1.1391    2.6860 C   0  0
   -3.4190    1.2463    3.0217 C   0  0
   -4.2724    2.0865    2.2917 C   0  0
   -3.7391    2.8175    1.2200 C   0  0
   -2.3919    2.7098    0.8856 C   0  0
   -5.7263    2.2013    2.6501 C   0  0
   -6.1487    1.5256    3.6166 O   0  0
   -6.4423    2.9663    1.9636 O   0  5
    2.4589    2.2258   -1.3791 C   0  0
    2.5081    3.7744   -1.4984 C   0  0
    3.1536    4.2574   -2.8126 C   0  0
    4.5523    3.6530   -3.0220 C   0  0
    4.5162    2.1179   -2.9368 C   0  0
    3.8757    1.6310   -1.6224 C   0  0
    1.8902    0.2859    0.1301 N   0  0
    2.8284   -0.3777    0.9070 C   0  0
    3.8946    0.0485    1.7110 C   0  0
    4.6360   -0.9426    2.3592 C   0  0
    4.3338   -2.2989    2.2182 C   0  0
    3.2730   -2.7225    1.4179 C   0  0
    2.5134   -1.7498    0.7542 C   0  0
    1.4448   -1.9199   -0.0767 N   0  0
    1.1020   -0.7095   -0.4429 C   0  0
   -0.0383   -0.4888   -1.3718 C   0  0
   -1.3455   -0.5718   -0.8850 C   0  0
   -2.4209   -0.3504   -1.7405 C   0  0
   -2.1862   -0.0617   -3.0839 C   0  0
   -0.8843    0.0024   -3.5784 C   0  0
    0.1917   -0.2157   -2.7219 C   0  0
   -3.5186    0.2154   -4.1449 Cl  0  0
    5.0808   -3.2215    2.8664 F   0  0
    5.6742   -0.5735    3.1437 F   0  0
    2.3971    2.1868    0.7781 H   0  0
    0.3728    3.3563    0.3266 H   0  0
   -0.2408    2.0762   -0.6972 H   0  0
   -1.4313    0.4836    3.2572 H   0  0
   -3.7910    0.6671    3.8552 H   0  0
   -4.3641    3.4773    0.6347 H   0  0
   -2.0231    3.2918    0.0550 H   0  0
    1.8234    1.8765   -2.1917 H   0  0
    1.5048    4.1963   -1.4399 H   0  0
    3.0620    4.1883   -0.6542 H   0  0
    2.5120    3.9846   -3.6521 H   0  0
    3.2148    5.3464   -2.8189 H   0  0
    4.9539    3.9648   -3.9869 H   0  0
    5.2352    4.0440   -2.2660 H   0  0
    3.9524    1.7208   -3.7825 H   0  0
    5.5261    1.7166   -3.0298 H   0  0
    4.5283    1.8914   -0.7875 H   0  0
    3.8356    0.5416   -1.6478 H   0  0
    4.1452    1.0916    1.8331 H   0  0
    3.0471   -3.7733    1.3136 H   0  0
   -1.5270   -0.7907    0.1578 H   0  0
   -3.4310   -0.4006   -1.3608 H   0  0
   -0.7081    0.2198   -4.6217 H   0  0
    1.2002   -0.1721   -3.1071 H   0  0
  1  2  1  0
  1 13  1  0
  1 19  1  0
  1 37  1  0
  2  3  1  0
  2 38  1  0
  2 39  1  0
  3  4  1  0
  4  5  2  0
  4  9  1  0
  5  6  1  0
  5 40  1  0
  6  7  2  0
  6 41  1  0
  7  8  1  0
  7 10  1  0
  8  9  2  0
  8 42  1  0
  9 43  1  0
 10 11  2  0
 10 12  1  0
 13 14  1  0
 13 18  1  0
 13 44  1  0
 14 15  1  0
 14 45  1  0
 14 46  1  0
 15 16  1  0
 15 47  1  0
 15 48  1  0
 16 17  1  0
 16 49  1  0
 16 50  1  0
 17 18  1  0
 17 51  1  0
 17 52  1  0
 18 53  1  0
 18 54  1  0
 19 20  1  0
 19 27  1  0
 20 21  2  0
 20 25  1  0
 21 22  1  0
 21 55  1  0
 22 23  2  0
 22 36  1  0
 23 24  1  0
 23 35  1  0
 24 25  2  0
 24 56  1  0
 25 26  1  0
 26 27  2  0
 27 28  1  0
 28 29  2  0
 28 33  1  0
 29 30  1  0
 29 57  1  0
 30 31  2  0
 30 58  1  0
 31 32  1  0
 31 34  1  0
 32 33  2  0
 32 59  1  0
 33 60  1  0
M  CHG  1  12  -1
M  END
> <Name>
ligand_47

> <activity>
1

$$$$
ligand_48
  SciTegic10272118463D

 60 64  0  0  1  0            999 V2000
    5.5512  -20.7029    1.5201 C   0  0
    5.8418  -21.9609    2.0482 C   0  0
    4.9625  -23.0394    1.9230 C   0  0
    4.3585  -20.4670    0.8375 C   0  0
    3.4561  -21.5297    0.6935 C   0  0
    3.7643  -22.8019    1.2351 C   0  0
    2.6696  -23.5922    0.9162 N   0  0
    1.8034  -22.7692    0.1985 C   0  0
    2.2405  -21.5400    0.0738 N   0  0
    2.5062  -25.0159    1.2918 C   0  0  2  0  0  0
    2.8954  -25.9527    0.1230 C   0  0
    1.1374  -25.3217    2.0025 C   0  0
    4.1977  -25.9428   -0.2331 N   0  0
    2.0432  -26.6514   -0.4301 O   0  0
    1.0778  -26.7563    2.6056 C   0  0
   -0.2692  -27.0599    3.2916 C   0  0
   -0.6134  -26.0155    4.3674 C   0  0
   -0.5608  -24.5864    3.8007 C   0  0
    0.7880  -24.2911    3.1161 C   0  0
    6.4399  -19.6956    1.6730 F   0  0
    0.4914  -23.1781   -0.3765 C   0  0
   -0.6874  -22.6435    0.1514 C   0  0
   -1.9202  -23.0281   -0.3688 C   0  0
   -1.9717  -23.9386   -1.4228 C   0  0
   -0.7991  -24.4620   -1.9644 C   0  0
    0.4333  -24.0770   -1.4441 C   0  0
   -3.4999  -24.4179   -2.0654 Cl  0  0
    4.7622  -26.7068   -1.2624 C   0  0
    5.8235  -27.5541   -0.9413 C   0  0
    6.4431  -28.3102   -1.9359 C   0  0
    6.0277  -28.2230   -3.2749 C   0  0
    4.9749  -27.3469   -3.5878 C   0  0
    4.3504  -26.5868   -2.5984 C   0  0
    3.3633  -25.7299   -2.9521 F   0  0
    6.6966  -29.0383   -4.3440 C   0  0
    7.6319  -29.7989   -4.0039 O   0  5
    6.2848  -28.9151   -5.5206 O   0  0
    6.7761  -22.1040    2.5711 H   0  0
    5.2088  -24.0037    2.3421 H   0  0
    4.1400  -19.4905    0.4316 H   0  0
    3.2576  -25.2047    2.0600 H   0  0
    0.3460  -25.2712    1.2540 H   0  0
    4.8365  -25.3776    0.3059 H   0  0
    1.2468  -27.5128    1.8400 H   0  0
    1.8843  -26.8809    3.3300 H   0  0
   -1.0602  -27.0811    2.5401 H   0  0
   -0.2452  -28.0560    3.7353 H   0  0
   -1.6015  -26.2175    4.7827 H   0  0
    0.0902  -26.1033    5.1968 H   0  0
   -1.3687  -24.4510    3.0797 H   0  0
   -0.7404  -23.8639    4.5978 H   0  0
    1.5798  -24.2849    3.8670 H   0  0
    0.7502  -23.2783    2.7168 H   0  0
   -0.6486  -21.9394    0.9701 H   0  0
   -2.8313  -22.6215    0.0451 H   0  0
   -0.8418  -25.1632   -2.7849 H   0  0
    1.3400  -24.4780   -1.8719 H   0  0
    6.1682  -27.6392    0.0795 H   0  0
    7.2550  -28.9654   -1.6526 H   0  0
    4.6342  -27.2404   -4.6081 H   0  0
  1  2  2  0
  1  4  1  0
  1 20  1  0
  2  3  1  0
  2 38  1  0
  3  6  2  0
  3 39  1  0
  4  5  2  0
  4 40  1  0
  5  6  1  0
  5  9  1  0
  6  7  1  0
  7  8  1  0
  7 10  1  0
  8  9  2  0
  8 21  1  0
 10 11  1  0
 10 12  1  0
 10 41  1  0
 11 13  1  0
 11 14  2  0
 12 15  1  0
 12 19  1  0
 12 42  1  0
 13 28  1  0
 13 43  1  0
 15 16  1  0
 15 44  1  0
 15 45  1  0
 16 17  1  0
 16 46  1  0
 16 47  1  0
 17 18  1  0
 17 48  1  0
 17 49  1  0
 18 19  1  0
 18 50  1  0
 18 51  1  0
 19 52  1  0
 19 53  1  0
 21 22  2  0
 21 26  1  0
 22 23  1  0
 22 54  1  0
 23 24  2  0
 23 55  1  0
 24 25  1  0
 24 27  1  0
 25 26  2  0
 25 56  1  0
 26 57  1  0
 28 29  2  0
 28 33  1  0
 29 30  1  0
 29 58  1  0
 30 31  2  0
 30 59  1  0
 31 32  1  0
 31 35  1  0
 32 33  2  0
 32 60  1  0
 33 34  1  0
 35 36  1  0
 35 37  2  0
M  CHG  1  36  -1
M  END
> <Name>
ligand_48

> <activity>
1

$$$$
ligand_49
  SciTegic10272118463D

 65 69  0  0  1  0            999 V2000
   20.3375   -7.1870    5.6343 C   0  0
   19.5230   -8.0894    4.9472 C   0  0
   19.7078   -8.3614    3.5893 C   0  0
   21.3762   -6.5172    4.9887 C   0  0
   21.5839   -6.7718    3.6264 C   0  0
   20.7498   -7.6854    2.9383 C   0  0
   21.2245   -7.6851    1.6330 N   0  0
   22.3124   -6.8077    1.6313 C   0  0
   22.5272   -6.2457    2.7951 N   0  0
   20.6265   -8.4649    0.5202 C   0  0  2  0  0  0
   21.6374   -9.2377   -0.3594 C   0  0
   19.4912   -7.6841   -0.2381 C   0  0
   21.7734   -8.8601   -1.6433 N   0  0
   22.2955  -10.1524    0.1379 O   0  0
   18.1939   -7.5358    0.6002 C   0  0
   17.0527   -6.8690   -0.1945 C   0  0
   17.4815   -5.5126   -0.7846 C   0  0
   18.7726   -5.6363   -1.6150 C   0  0
   19.9064   -6.3032   -0.8118 C   0  0
   20.1194   -6.9560    6.9490 F   0  0
   18.5265   -8.7196    5.6098 F   0  0
   23.2041   -6.4906    0.4796 C   0  0
   24.2341   -7.3704    0.1347 C   0  0
   25.0776   -7.0732   -0.9319 C   0  0
   24.9010   -5.8872   -1.6416 C   0  0
   23.8964   -4.9902   -1.2833 C   0  0
   23.0544   -5.2873   -0.2149 C   0  0
   25.9349   -5.5270   -2.9752 Cl  0  0
   22.6676   -9.4595   -2.6364 C   0  0  1  0  0  0
   22.1755  -10.8241   -3.1783 C   0  0
   20.9348  -10.6779   -4.0856 C   0  0
   21.1835   -9.6882   -5.2447 C   0  0  2  0  0  0
   21.7158   -8.3305   -4.7363 C   0  0
   22.9456   -8.5026   -3.8182 C   0  0
   20.0102   -9.5120   -6.0106 O   0  0
   19.0662   -9.0632    3.0782 H   0  0
   22.0027   -5.8224    5.5280 H   0  0
   20.1160   -9.2999    1.0031 H   0  0
   19.2023   -8.3009   -1.0926 H   0  0
   21.1897   -8.1080   -1.9774 H   0  0
   17.8587   -8.5115    0.9543 H   0  0
   18.3947   -6.9383    1.4902 H   0  0
   16.7380   -7.5321   -1.0018 H   0  0
   16.1802   -6.7364    0.4466 H   0  0
   16.6794   -5.1018   -1.3991 H   0  0
   17.6397   -4.7995    0.0260 H   0  0
   18.5726   -6.2214   -2.5141 H   0  0
   19.0894   -4.6507   -1.9582 H   0  0
   20.1870   -5.6403    0.0070 H   0  0
   20.7833   -6.3943   -1.4512 H   0  0
   24.3733   -8.2900    0.6851 H   0  0
   25.8625   -7.7623   -1.2073 H   0  0
   23.7707   -4.0665   -1.8289 H   0  0
   22.2843   -4.5846    0.0680 H   0  0
   23.6204   -9.6200   -2.1256 H   0  0
   22.9792  -11.2986   -3.7436 H   0  0
   21.9548  -11.5036   -2.3540 H   0  0
   20.6508  -11.6540   -4.4815 H   0  0
   20.0899  -10.3361   -3.4849 H   0  0
   21.9228  -10.1234   -5.9193 H   0  0
   21.9751   -7.6887   -5.5795 H   0  0
   20.9288   -7.8090   -4.1883 H   0  0
   23.2686   -7.5289   -3.4479 H   0  0
   23.7812   -8.8869   -4.4055 H   0  0
   20.2062   -8.9177   -6.7387 H   0  0
  1  2  2  0
  1  4  1  0
  1 20  1  0
  2  3  1  0
  2 21  1  0
  3  6  2  0
  3 36  1  0
  4  5  2  0
  4 37  1  0
  5  6  1  0
  5  9  1  0
  6  7  1  0
  7  8  1  0
  7 10  1  0
  8  9  2  0
  8 22  1  0
 10 11  1  0
 10 12  1  0
 10 38  1  0
 11 13  1  0
 11 14  2  0
 12 15  1  0
 12 19  1  0
 12 39  1  0
 13 29  1  0
 13 40  1  0
 15 16  1  0
 15 41  1  0
 15 42  1  0
 16 17  1  0
 16 43  1  0
 16 44  1  0
 17 18  1  0
 17 45  1  0
 17 46  1  0
 18 19  1  0
 18 47  1  0
 18 48  1  0
 19 49  1  0
 19 50  1  0
 22 23  2  0
 22 27  1  0
 23 24  1  0
 23 51  1  0
 24 25  2  0
 24 52  1  0
 25 26  1  0
 25 28  1  0
 26 27  2  0
 26 53  1  0
 27 54  1  0
 29 30  1  0
 29 34  1  0
 29 55  1  0
 30 31  1  0
 30 56  1  0
 30 57  1  0
 31 32  1  0
 31 58  1  0
 31 59  1  0
 32 33  1  0
 32 35  1  0
 32 60  1  0
 33 34  1  0
 33 61  1  0
 33 62  1  0
 34 63  1  0
 34 64  1  0
 35 65  1  0
M  END
> <Name>
ligand_49

> <activity>
1

$$$$
ligand_50
  SciTegic10272118463D

 60 64  0  0  1  0            999 V2000
    1.2493    3.4981    1.0643 C   0  0
    0.8807    4.3059   -0.0569 C   0  0
    1.8872    4.1835   -0.9971 N   0  0
    2.8513    3.3391   -0.5040 C   0  0
    2.5209    2.8812    0.7611 C   0  0
    3.3120    1.9669    1.5913 C   0  0
    2.8496    1.6638    2.7134 O   0  5
    4.3937    1.5575    1.1124 O   0  0
    1.9274    4.8358   -2.2963 C   0  0
   -0.8057    4.1952    2.1282 C   0  0
   -1.1579    4.9745    1.0241 C   0  0
   -0.3087    5.0457   -0.0865 C   0  0
    0.3756    3.4594    2.1647 C   0  0
   -2.4330    5.7460    1.0404 C   0  0
   -4.6018    6.3386    0.1277 C   0  0
   -4.7922    7.2752    1.1533 C   0  0
   -3.8016    7.4344    2.1177 C   0  0
   -2.6367    6.6779    2.0634 C   0  0
   -3.4366    5.5703    0.0672 C   0  0
   -3.3036    4.5457   -1.0537 C   0  0
   -5.9132    8.0709    1.2876 O   0  0
   -6.9954    7.9194    0.3747 C   0  0
   -8.1157    8.8477    0.7915 C   0  0
   -9.8022    9.8189    1.8952 O   0  0
   -9.5608   10.5907    0.7649 N   0  0
   -8.5725    9.9995    0.1328 C   0  0
   -8.9433    8.7695    1.9064 C   0  0
   -9.0814    7.8374    3.0991 C   0  0  2  0  0  0
   -8.2586    8.5795    4.4959 Cl  0  0
   -8.5304    6.4199    2.8778 C   0  0
   -8.0549   10.5746   -1.1439 C   0  0
   -8.2911    9.9227   -2.3685 C   0  0
   -7.7896   10.4762   -3.5471 C   0  0
   -7.0863   11.6241   -3.5030 N   0  3
   -6.8351   12.2792   -2.3533 C   0  0
   -7.3115   11.7697   -1.1447 C   0  0
   -9.2013    8.4535   -2.4653 Cl  0  0
   -6.9487   12.6258    0.3152 Cl  0  0
   -6.6449   12.1035   -4.5802 O   0  5
    3.7226    3.1219   -1.1055 H   0  0
    1.0593    4.5291   -2.8808 H   0  0
    1.9070    5.9173   -2.1576 H   0  0
    2.8360    4.5609   -2.8337 H   0  0
   -1.4670    4.1512    2.9818 H   0  0
   -0.5650    5.6575   -0.9391 H   0  0
    0.6093    2.8658    3.0361 H   0  0
   -5.3565    6.1938   -0.6303 H   0  0
   -3.9365    8.1516    2.9141 H   0  0
   -1.8801    6.8254    2.8207 H   0  0
   -2.8471    3.6232   -0.6935 H   0  0
   -4.2746    4.2811   -1.4743 H   0  0
   -2.6880    4.9442   -1.8601 H   0  0
   -6.6514    8.1524   -0.6341 H   0  0
   -7.3460    6.8870    0.3467 H   0  0
  -10.1336    7.7502    3.3734 H   0  0
   -8.7336    5.7864    3.7418 H   0  0
   -8.9909    5.9454    2.0107 H   0  0
   -7.4504    6.4222    2.7305 H   0  0
   -7.9299   10.0395   -4.5257 H   0  0
   -6.2564   13.1880   -2.4379 H   0  0
  1  2  1  0
  1  5  1  0
  1 13  2  0
  2  3  1  0
  2 12  2  0
  3  4  1  0
  3  9  1  0
  4  5  2  0
  4 40  1  0
  5  6  1  0
  6  7  1  0
  6  8  2  0
  9 41  1  0
  9 42  1  0
  9 43  1  0
 10 11  2  0
 10 13  1  0
 10 44  1  0
 11 12  1  0
 11 14  1  0
 12 45  1  0
 13 46  1  0
 14 18  2  0
 14 19  1  0
 15 16  1  0
 15 19  2  0
 15 47  1  0
 16 17  2  0
 16 21  1  0
 17 18  1  0
 17 48  1  0
 18 49  1  0
 19 20  1  0
 20 50  1  0
 20 51  1  0
 20 52  1  0
 21 22  1  0
 22 23  1  0
 22 53  1  0
 22 54  1  0
 23 26  1  0
 23 27  2  0
 24 25  1  0
 24 27  1  0
 25 26  2  0
 26 31  1  0
 27 28  1  0
 28 29  1  0
 28 30  1  0
 28 55  1  0
 30 56  1  0
 30 57  1  0
 30 58  1  0
 31 32  2  0
 31 36  1  0
 32 33  1  0
 32 37  1  0
 33 34  2  0
 33 59  1  0
 34 35  1  0
 34 39  1  0
 35 36  2  0
 35 60  1  0
 36 38  1  0
M  CHG  3   7  -1  34   1  39  -1
M  END
> <Name>
ligand_50

> <activity>
1

$$$$
ligand_51
  SciTegic10272118463D

 63 67  0  0  1  0            999 V2000
    8.6775    8.3447   -0.4728 C   0  0
    8.9178    7.1317   -1.3889 C   0  0
    9.6910    7.5246   -2.6604 C   0  0
    9.6161    6.0088   -0.6428 C   0  0
   10.8615    6.2691   -0.1712 O   0  0
   11.3395    5.1341    0.4757 N   0  0
   10.3826    4.2377    0.3818 C   0  0
    9.2601    4.7133   -0.3103 C   0  0
    7.9800    3.9830   -0.6467 C   0  0
    6.9970    4.3109    0.3289 O   0  0
    5.7564    3.7069    0.2738 C   0  0
    4.8618    4.0213    1.2942 C   0  0
    3.5888    3.4575    1.3232 C   0  0
    3.1718    2.5601    0.3327 C   0  0
    4.0664    2.2484   -0.7121 C   0  0
    3.6769    1.3150   -1.8526 C   0  0
    5.3454    2.8164   -0.7296 C   0  0
    1.8038    1.9758    0.4239 C   0  0
    0.6919    2.8197    0.4677 C   0  0
   -0.6063    2.3249    0.5571 C   0  0
   -0.8154    0.9359    0.6097 C   0  0
   -1.9859    0.0927    0.7005 C   0  0
   -1.4966   -1.2033    0.7136 C   0  0
   -0.1255   -1.2203    0.6382 N   0  0
    0.7000   -2.4177    0.6294 C   0  0
    0.3319    0.0829    0.5718 C   0  0
    1.6361    0.5873    0.4838 C   0  0
   -3.3953    0.4928    0.7664 C   0  0
   -3.6466    1.7181    0.7424 O   0  0
   -4.2431   -0.4251    0.8418 O   0  5
   10.5629    2.8817    0.9781 C   0  0
   11.4275    1.9453    0.3815 C   0  0
   12.3165    2.3054   -1.0594 Cl  0  0
   11.5672    0.6803    0.9538 C   0  0
   10.8740    0.3667    2.0652 N   0  3
   11.0164   -0.7814    2.5617 O   0  5
   10.0344    1.2313    2.6667 C   0  0
    9.8582    2.5107    2.1384 C   0  0
    8.7870    3.6004    2.9512 Cl  0  0
    8.0881    8.0672    0.4022 H   0  0
    9.6160    8.7724   -0.1171 H   0  0
    8.1331    9.1325   -0.9948 H   0  0
    7.9372    6.7750   -1.7076 H   0  0
    9.8165    6.6698   -3.3263 H   0  0
    9.1637    8.2980   -3.2201 H   0  0
   10.6846    7.9083   -2.4244 H   0  0
    7.6325    4.2583   -1.6438 H   0  0
    8.1526    2.9054   -0.6667 H   0  0
    5.1590    4.7063    2.0748 H   0  0
    2.9217    3.7155    2.1331 H   0  0
    4.3026    1.4715   -2.7322 H   0  0
    3.7869    0.2750   -1.5453 H   0  0
    2.6435    1.4772   -2.1606 H   0  0
    6.0124    2.5607   -1.5388 H   0  0
    0.8336    3.8903    0.4250 H   0  0
   -1.4397    3.0112    0.5842 H   0  0
   -2.0350   -2.1387    0.7725 H   0  0
    1.3775   -2.3949    1.4835 H   0  0
    0.0772   -3.3113    0.6902 H   0  0
    1.2808   -2.4484   -0.2931 H   0  0
    2.4906   -0.0733    0.4661 H   0  0
   12.2080   -0.0938    0.5562 H   0  0
    9.5333    0.8716    3.5541 H   0  0
  1  2  1  0
  1 40  1  0
  1 41  1  0
  1 42  1  0
  2  3  1  0
  2  4  1  0
  2 43  1  0
  3 44  1  0
  3 45  1  0
  3 46  1  0
  4  5  1  0
  4  8  2  0
  5  6  1  0
  6  7  2  0
  7  8  1  0
  7 31  1  0
  8  9  1  0
  9 10  1  0
  9 47  1  0
  9 48  1  0
 10 11  1  0
 11 12  2  0
 11 17  1  0
 12 13  1  0
 12 49  1  0
 13 14  2  0
 13 50  1  0
 14 15  1  0
 14 18  1  0
 15 16  1  0
 15 17  2  0
 16 51  1  0
 16 52  1  0
 16 53  1  0
 17 54  1  0
 18 19  2  0
 18 27  1  0
 19 20  1  0
 19 55  1  0
 20 21  2  0
 20 56  1  0
 21 22  1  0
 21 26  1  0
 22 23  2  0
 22 28  1  0
 23 24  1  0
 23 57  1  0
 24 25  1  0
 24 26  1  0
 25 58  1  0
 25 59  1  0
 25 60  1  0
 26 27  2  0
 27 61  1  0
 28 29  2  0
 28 30  1  0
 31 32  2  0
 31 38  1  0
 32 33  1  0
 32 34  1  0
 34 35  2  0
 34 62  1  0
 35 36  1  0
 35 37  1  0
 37 38  2  0
 37 63  1  0
 38 39  1  0
M  CHG  3  30  -1  35   1  36  -1
M  END
> <Name>
ligand_51

> <activity>
1

$$$$
ligand_52
  SciTegic10272118463D

 72 76  0  0  1  0            999 V2000
   -5.5804   -0.0132   -1.3573 C   0  0
   -4.4502    0.7582   -1.7497 O   0  0
   -3.2359    0.5354   -1.1303 C   0  0
   -2.1618    1.3199   -1.5528 C   0  0
   -0.8966    1.1636   -0.9893 C   0  0
   -0.6817    0.2107    0.0097 C   0  0
    0.6842    0.0648    0.5906 C   0  0
    1.2437    1.0316    1.2749 N   0  0
    2.4458    0.5272    1.6786 C   0  0
    3.4378    1.1384    2.4558 C   0  0
    4.5952    0.4198    2.7479 C   0  0
    4.7680   -0.8792    2.2785 C   0  0
    3.7990   -1.5138    1.5004 C   0  0
    2.6338   -0.7925    1.2058 C   0  0
    1.4782   -1.0707    0.4834 N   0  0
    1.1529   -2.3051   -0.2685 C   0  0  1  0  0  0
    1.7407   -2.2527   -1.7218 C   0  0
    1.1444   -3.3446   -2.6540 C   0  0
    1.6498   -3.2225   -4.1065 C   0  0
    3.1891   -3.2130   -4.1842 C   0  0
    3.6599   -4.4013   -3.8003 F   0  0
    3.5715   -3.0142   -5.4458 F   0  0
    3.7846   -2.1124   -3.2845 C   0  0
    3.2917   -2.2143   -1.8251 C   0  0
    1.3748   -3.5973    0.5555 C   0  0
    2.1771   -4.4509    0.1852 O   0  0
    0.6508   -3.6920    1.6862 N   0  0
    0.6780   -4.7305    2.7224 C   0  0
    1.9580   -4.7858    3.5975 C   0  0
    3.0527   -5.7287    3.0582 C   0  0
    2.5017   -7.1347    2.7557 C   0  0
    1.2903   -7.0916    1.8053 C   0  0
    0.1827   -6.1439    2.3131 C   0  0
   -1.7579   -0.5707    0.4577 C   0  0
   -1.5893   -1.5126    1.4434 O   0  0
   -1.7256   -1.0040    2.7634 C   0  0
   -3.0204   -0.4142   -0.1184 C   0  0
   -6.4457    0.2928   -1.9450 H   0  0
   -5.4206   -1.0776   -1.5364 H   0  0
   -5.8255    0.1418   -0.3055 H   0  0
   -2.3104    2.0576   -2.3278 H   0  0
   -0.0805    1.7816   -1.3357 H   0  0
    3.3112    2.1457    2.8244 H   0  0
    5.3696    0.8763    3.3470 H   0  0
    5.6769   -1.4097    2.5225 H   0  0
    3.9566   -2.5216    1.1462 H   0  0
    0.0738   -2.2968   -0.4125 H   0  0
    1.3967   -1.3032   -2.1391 H   0  0
    1.3941   -4.3384   -2.2814 H   0  0
    0.0550   -3.2873   -2.6469 H   0  0
    1.2511   -4.0401   -4.7084 H   0  0
    1.2591   -2.3040   -4.5473 H   0  0
    4.8742   -2.1574   -3.3117 H   0  0
    3.5136   -1.1345   -3.6855 H   0  0
    3.6883   -1.3629   -1.2738 H   0  0
    3.7241   -3.1036   -1.3665 H   0  0
    0.0097   -2.9327    1.8682 H   0  0
   -0.1002   -4.3370    3.3790 H   0  0
    2.3644   -3.7834    3.7413 H   0  0
    1.6790   -5.1320    4.5941 H   0  0
    3.5021   -5.3067    2.1602 H   0  0
    3.8637   -5.8007    3.7839 H   0  0
    3.2877   -7.7578    2.3274 H   0  0
    2.2092   -7.6156    3.6904 H   0  0
    1.6149   -6.7924    0.8101 H   0  0
    0.8838   -8.0965    1.6849 H   0  0
   -0.2760   -6.6099    3.1868 H   0  0
   -0.6153   -6.0683    1.5731 H   0  0
   -1.5817   -1.8141    3.4781 H   0  0
   -0.9812   -0.2361    2.9805 H   0  0
   -2.7195   -0.5852    2.9304 H   0  0
   -3.8244   -1.0393    0.2386 H   0  0
  1  2  1  0
  1 38  1  0
  1 39  1  0
  1 40  1  0
  2  3  1  0
  3  4  2  0
  3 37  1  0
  4  5  1  0
  4 41  1  0
  5  6  2  0
  5 42  1  0
  6  7  1  0
  6 34  1  0
  7  8  2  0
  7 15  1  0
  8  9  1  0
  9 10  2  0
  9 14  1  0
 10 11  1  0
 10 43  1  0
 11 12  2  0
 11 44  1  0
 12 13  1  0
 12 45  1  0
 13 14  2  0
 13 46  1  0
 14 15  1  0
 15 16  1  0
 16 17  1  0
 16 25  1  0
 16 47  1  0
 17 18  1  0
 17 24  1  0
 17 48  1  0
 18 19  1  0
 18 49  1  0
 18 50  1  0
 19 20  1  0
 19 51  1  0
 19 52  1  0
 20 21  1  0
 20 22  1  0
 20 23  1  0
 23 24  1  0
 23 53  1  0
 23 54  1  0
 24 55  1  0
 24 56  1  0
 25 26  2  0
 25 27  1  0
 27 28  1  0
 27 57  1  0
 28 29  1  0
 28 33  1  0
 28 58  1  0
 29 30  1  0
 29 59  1  0
 29 60  1  0
 30 31  1  0
 30 61  1  0
 30 62  1  0
 31 32  1  0
 31 63  1  0
 31 64  1  0
 32 33  1  0
 32 65  1  0
 32 66  1  0
 33 67  1  0
 33 68  1  0
 34 35  1  0
 34 37  2  0
 35 36  1  0
 36 69  1  0
 36 70  1  0
 36 71  1  0
 37 72  1  0
M  END
> <Name>
ligand_52

> <activity>
1

$$$$
ligand_53
  SciTegic10272118463D

 65 69  0  0  1  0            999 V2000
   -2.9055   -1.8191    2.0867 S   0  0
   -4.0114   -2.7823    2.1237 O   0  0
   -2.6024   -1.0272    3.2852 O   0  0
    0.1137    2.0453    0.8456 O   0  0
    0.2651   -2.6183   -0.6419 O   0  0
    0.0988    6.4408   -0.0278 N   0  0
   -1.4238   -2.7048    1.6506 N   0  0
    1.3508    5.9739   -0.1541 N   0  0
   -1.8055    2.6943   -0.2365 N   0  0
   -3.1892   -0.6381    0.7431 C   0  0
   -0.0678    4.2300    0.0586 C   0  0
    1.2749    4.6583   -0.0893 C   0  0
   -0.5674    2.8943    0.2679 C   0  0
   -0.7962    5.4121    0.1214 C   0  0
   -4.0619   -0.8497   -0.3450 C   0  0
   -2.5523    1.5038   -0.2222 C   0  0
    2.5270    3.8423   -0.1888 C   0  0
   -2.4547    0.5490    0.7965 C   0  0
   -0.1696    7.8290   -0.0433 C   0  0
   -4.1867    0.1291   -1.3356 C   0  0
   -3.4396    1.2995   -1.2754 C   0  0
   -1.5087   -3.7329    0.5855 C   0  0
   -0.1302   -1.9738    1.6845 C   0  0
    3.6689    4.2134    0.5297 C   0  0
    2.5671    2.7103   -1.0093 C   0  0
   -1.3570    8.3037   -0.6033 C   0  0
    0.7395    8.7393    0.5020 C   0  0
   -4.8936   -2.1147   -0.5045 C   0  0
    4.8332    3.4553    0.4375 C   0  0
    3.7300    1.9506   -1.1014 C   0  0
   -1.0391   -3.1839   -0.7756 C   0  0
    0.3327   -1.5286    0.2790 C   0  0
    4.8628    2.3212   -0.3754 C   0  0
   -1.6290    9.6661   -0.6180 C   0  0
    0.4631   10.1007    0.4854 C   0  0
   -0.7202   10.5642   -0.0741 C   0  0
    6.1324    1.4957   -0.4791 C   0  0
   -2.2167    3.4600   -0.7486 H   0  0
   -1.8481    5.6069    0.2717 H   0  0
   -1.7933    0.7161    1.6331 H   0  0
   -4.8586   -0.0174   -2.1690 H   0  0
   -3.5420    2.0338   -2.0618 H   0  0
   -0.8784   -4.5687    0.8905 H   0  0
   -2.5249   -4.1221    0.5377 H   0  0
   -0.2102   -1.1274    2.3667 H   0  0
    0.6073   -2.6472    2.1221 H   0  0
    3.6541    5.0878    1.1642 H   0  0
    1.6974    2.4157   -1.5784 H   0  0
   -2.0748    7.6227   -1.0374 H   0  0
    1.6638    8.3966    0.9450 H   0  0
   -5.4031   -2.1514   -1.4683 H   0  0
   -4.2687   -3.0043   -0.4441 H   0  0
   -5.6611   -2.1665    0.2680 H   0  0
    5.7082    3.7506    0.9981 H   0  0
    3.7479    1.0772   -1.7371 H   0  0
   -1.7239   -2.4221   -1.1512 H   0  0
   -1.0041   -3.9832   -1.5160 H   0  0
    1.3598   -1.1652    0.3178 H   0  0
   -0.2788   -0.7126   -0.1040 H   0  0
   -2.5485   10.0278   -1.0546 H   0  0
    1.1695   10.7995    0.9090 H   0  0
   -0.9335   11.6231   -0.0866 H   0  0
    5.9060    0.4452   -0.6664 H   0  0
    6.7522    1.8625   -1.2976 H   0  0
    6.7154    1.5495    0.4412 H   0  0
  1  2  2  0
  1  3  2  0
  1  7  1  0
  1 10  1  0
  4 13  2  0
  5 31  1  0
  5 32  1  0
  6  8  1  0
  6 14  1  0
  6 19  1  0
  7 22  1  0
  7 23  1  0
  8 12  2  0
  9 13  1  0
  9 16  1  0
  9 38  1  0
 10 15  1  0
 10 18  2  0
 11 12  1  0
 11 13  1  0
 11 14  2  0
 12 17  1  0
 14 39  1  0
 15 20  2  0
 15 28  1  0
 16 18  1  0
 16 21  2  0
 17 24  2  0
 17 25  1  0
 18 40  1  0
 19 26  2  0
 19 27  1  0
 20 21  1  0
 20 41  1  0
 21 42  1  0
 22 31  1  0
 22 43  1  0
 22 44  1  0
 23 32  1  0
 23 45  1  0
 23 46  1  0
 24 29  1  0
 24 47  1  0
 25 30  2  0
 25 48  1  0
 26 34  1  0
 26 49  1  0
 27 35  2  0
 27 50  1  0
 28 51  1  0
 28 52  1  0
 28 53  1  0
 29 33  2  0
 29 54  1  0
 30 33  1  0
 30 55  1  0
 31 56  1  0
 31 57  1  0
 32 58  1  0
 32 59  1  0
 33 37  1  0
 34 36  2  0
 34 60  1  0
 35 36  1  0
 35 61  1  0
 36 62  1  0
 37 63  1  0
 37 64  1  0
 37 65  1  0
M  END
> <Name>
ligand_53

> <activity>
1

$$$$
ligand_54
  SciTegic10272118463D

 66 71  0  0  1  0            999 V2000
    0.0025   -0.0593    0.7242 N   0  0
   -0.5424   -1.1414    0.0414 C   0  0
    0.3047   -2.1247   -0.1385 N   0  0
    1.4709   -1.6961    0.4249 C   0  0
    1.3255   -0.4022    0.9838 C   0  0
    2.3919    0.2424    1.6278 C   0  0
    3.6067   -0.4445    1.6910 C   0  0
    3.7611   -1.7184    1.1408 C   0  0
    2.7014   -2.3620    0.5028 C   0  0
    4.9572   -2.3441    1.2274 F   0  0
    4.6587    0.1442    2.3042 F   0  0
   -1.9512   -1.2306   -0.4399 C   0  0
   -2.7918   -2.2218    0.0690 C   0  0
   -4.1073   -2.3164   -0.3761 C   0  0
   -4.5996   -1.4256   -1.3386 C   0  0
   -6.0206   -1.5430   -1.8103 C   0  0
   -6.7713   -2.6065   -1.6273 N   0  0
   -7.9825   -2.4557   -2.1260 C   0  0
   -8.2496   -1.2361   -2.7357 C   0  0
   -6.8291   -0.2413   -2.6437 S   0  0
   -3.7444   -0.4435   -1.8547 C   0  0
   -2.4285   -0.3481   -1.4108 C   0  0
   -0.7099    1.1765    1.1279 C   0  0  2  0  0  0
    0.0731    2.4824    0.8280 C   0  0
    0.2685    3.3121    1.7163 O   0  0
    0.5165    2.6114   -0.4430 N   0  0
    1.2444    3.6648   -1.0235 C   0  0
    1.9679    3.3547   -2.1750 C   0  0
    2.7069    4.3389   -2.8256 C   0  0
    2.7288    5.6558   -2.3422 C   0  0
    3.5256    6.7172   -3.0455 C   0  0
    4.1670    6.3890   -4.0703 O   0  0
    3.5078    7.8769   -2.5721 O   0  5
    1.9871    5.9615   -1.1912 C   0  0
    1.2475    4.9794   -0.5376 C   0  0
   -1.3349    1.0078    2.5570 C   0  0
   -2.4217    2.0709    2.8786 C   0  0
   -3.0994    1.8283    4.2413 C   0  0
   -2.0685    1.7283    5.3803 C   0  0
   -1.0043    0.6553    5.0864 C   0  0
   -0.3166    0.8777    3.7242 C   0  0
    2.2952    1.2258    2.0633 H   0  0
    2.8293   -3.3483    0.0823 H   0  0
   -2.4281   -2.9165    0.8126 H   0  0
   -4.7429   -3.0873    0.0352 H   0  0
   -8.6890   -3.2679   -2.0367 H   0  0
   -9.1587   -0.8922   -3.2062 H   0  0
   -4.0864    0.2504   -2.6081 H   0  0
   -1.7809    0.4113   -1.8250 H   0  0
   -1.5633    1.2648    0.4585 H   0  0
    0.3543    1.8274   -1.0567 H   0  0
    1.9689    2.3490   -2.5710 H   0  0
    3.2620    4.0653   -3.7119 H   0  0
    1.9721    6.9666   -0.7936 H   0  0
    0.6756    5.2657    0.3313 H   0  0
   -1.8723    0.0567    2.5309 H   0  0
   -1.9876    3.0706    2.8830 H   0  0
   -3.1817    2.0768    2.0960 H   0  0
   -3.8097    2.6289    4.4515 H   0  0
   -3.6833    0.9075    4.1979 H   0  0
   -1.5817    2.6954    5.5162 H   0  0
   -2.5728    1.5055    6.3214 H   0  0
   -0.2582    0.6436    5.8818 H   0  0
   -1.4735   -0.3298    5.0968 H   0  0
    0.3625    0.0451    3.5457 H   0  0
    0.3052    1.7710    3.7851 H   0  0
  1  2  1  0
  1  5  1  0
  1 23  1  0
  2  3  2  0
  2 12  1  0
  3  4  1  0
  4  5  2  0
  4  9  1  0
  5  6  1  0
  6  7  2  0
  6 42  1  0
  7  8  1  0
  7 11  1  0
  8  9  2  0
  8 10  1  0
  9 43  1  0
 12 13  2  0
 12 22  1  0
 13 14  1  0
 13 44  1  0
 14 15  2  0
 14 45  1  0
 15 16  1  0
 15 21  1  0
 16 17  2  0
 16 20  1  0
 17 18  1  0
 18 19  2  0
 18 46  1  0
 19 20  1  0
 19 47  1  0
 21 22  2  0
 21 48  1  0
 22 49  1  0
 23 24  1  0
 23 36  1  0
 23 50  1  0
 24 25  2  0
 24 26  1  0
 26 27  1  0
 26 51  1  0
 27 28  2  0
 27 35  1  0
 28 29  1  0
 28 52  1  0
 29 30  2  0
 29 53  1  0
 30 31  1  0
 30 34  1  0
 31 32  2  0
 31 33  1  0
 34 35  2  0
 34 54  1  0
 35 55  1  0
 36 37  1  0
 36 41  1  0
 36 56  1  0
 37 38  1  0
 37 57  1  0
 37 58  1  0
 38 39  1  0
 38 59  1  0
 38 60  1  0
 39 40  1  0
 39 61  1  0
 39 62  1  0
 40 41  1  0
 40 63  1  0
 40 64  1  0
 41 65  1  0
 41 66  1  0
M  CHG  1  33  -1
M  END
> <Name>
ligand_54

> <activity>
1

$$$$
ligand_55
  SciTegic10272118463D

 64 67  0  0  1  0            999 V2000
    9.0606   -3.9562    0.8844 C   0  0
    1.8349   -5.5627    3.5292 C   0  0
    3.4564   -4.8174   -0.5298 C   0  0
   10.0529   -5.8299   -0.6848 C   0  0
    3.3361   -5.7399   -1.5867 C   0  0
   -0.1940   -5.2666    1.5033 C   0  0
   11.2900   -4.1381    0.5461 N   0  0
    6.9489   -4.0068    1.8591 O   0  0
    2.0213   -4.1175    0.3126 S   0  0
    0.4495   -5.4053    3.8436 O   0  0
    7.1863   -4.6107   -0.3457 N   0  0
    2.5017   -3.2156    1.3666 O   0  0
    1.2141   -5.4919    1.0976 N   0  0
    5.8760   -4.9583   -0.7137 C   0  0
   10.1164   -4.6563    0.2403 C   0  0
   -0.2786   -4.6176    2.8994 C   0  0
    4.4838   -6.2473   -2.2013 C   0  0
    7.6389   -4.1904    0.8551 C   0  0
   13.0772   -3.3049    2.8383 C   0  0
    1.9992   -6.2070    2.1352 C   0  0
    9.7077   -3.0351    1.6950 C   0  0
   12.9030   -1.6136    0.9220 C   0  0
    1.1242   -3.6004   -0.7275 O   0  0
   12.1451   -2.3892    2.0189 C   0  0
   11.0449   -3.1646    1.4352 N   0  0
    1.9816   -6.2071   -2.1054 C   0  0
    5.7463   -5.8561   -1.7713 C   0  0
    4.7304   -4.4301   -0.1044 C   0  0
   10.7261   -5.7973   -1.9100 C   0  0
   10.6535   -6.8842   -2.7771 C   0  0
    9.9089   -8.0101   -2.4216 C   0  0
    9.2453   -8.0523   -1.1945 C   0  0
    9.3197   -6.9657   -0.3276 C   0  0
    9.8305   -9.1961   -3.3655 C   0  0
    2.3213   -4.5874    3.5728 H   0  0
    2.2989   -6.1880    4.2920 H   0  0
   -0.6971   -6.2342    1.5029 H   0  0
   -0.6913   -4.6582    0.7477 H   0  0
    7.8867   -4.7668   -1.0557 H   0  0
    0.1313   -3.6059    2.8846 H   0  0
   -1.3167   -4.5441    3.2236 H   0  0
    4.4034   -6.9498   -3.0182 H   0  0
   13.8572   -2.7262    3.3342 H   0  0
   12.5268   -3.8401    3.6133 H   0  0
   13.5706   -4.0475    2.2096 H   0  0
    3.0456   -6.2409    1.8314 H   0  0
    1.6498   -7.2398    2.1554 H   0  0
    9.3420   -2.3039    2.4013 H   0  0
   13.6765   -0.9788    1.3553 H   0  0
   13.3901   -2.2855    0.2138 H   0  0
   12.2306   -0.9670    0.3565 H   0  0
   11.7012   -1.6617    2.7008 H   0  0
    2.0824   -6.9881   -2.8601 H   0  0
    1.3709   -6.6181   -1.3029 H   0  0
    1.4417   -5.3807   -2.5673 H   0  0
    6.6208   -6.2633   -2.2596 H   0  0
    4.8229   -3.7099    0.6935 H   0  0
   11.3007   -4.9272   -2.1940 H   0  0
   11.1750   -6.8485   -3.7227 H   0  0
    8.6733   -8.9237   -0.9104 H   0  0
    8.8031   -7.0073    0.6206 H   0  0
   10.6323   -9.9021   -3.1477 H   0  0
    8.8785   -9.7188   -3.2643 H   0  0
    9.9262   -8.8814   -4.4055 H   0  0
  1 18  1  0
  1 21  2  0
  1 15  1  0
  2 10  1  0
  2 20  1  0
  2 35  1  0
  2 36  1  0
  3  5  2  0
  3 28  1  0
  3  9  1  0
  4 15  1  0
  4 29  2  0
  4 33  1  0
  5 17  1  0
  5 26  1  0
  6 16  1  0
  6 13  1  0
  6 37  1  0
  6 38  1  0
  7 15  2  0
  7 25  1  0
  8 18  2  0
  9 13  1  0
  9 23  2  0
  9 12  2  0
 10 16  1  0
 11 14  1  0
 11 18  1  0
 11 39  1  0
 13 20  1  0
 14 28  2  0
 14 27  1  0
 16 40  1  0
 16 41  1  0
 17 27  2  0
 17 42  1  0
 19 24  1  0
 19 43  1  0
 19 44  1  0
 19 45  1  0
 20 46  1  0
 20 47  1  0
 21 25  1  0
 21 48  1  0
 22 24  1  0
 22 49  1  0
 22 50  1  0
 22 51  1  0
 24 25  1  0
 24 52  1  0
 26 53  1  0
 26 54  1  0
 26 55  1  0
 27 56  1  0
 28 57  1  0
 29 30  1  0
 29 58  1  0
 30 31  2  0
 30 59  1  0
 31 32  1  0
 31 34  1  0
 32 33  2  0
 32 60  1  0
 33 61  1  0
 34 62  1  0
 34 63  1  0
 34 64  1  0
M  END
> <Name>
ligand_55

> <activity>
1

$$$$
ligand_56
  SciTegic10272118463D

 67 70  0  0  1  0            999 V2000
    8.9590   -3.9135    0.2836 C   0  0
    1.9504   -4.6934    3.7561 C   0  0
    3.2509   -4.9079   -0.4774 C   0  0
    9.8020   -6.1153   -0.9000 C   0  0
    3.0369   -6.0372   -1.2907 C   0  0
   14.2966   -2.0672    2.1832 C   0  0
   -0.2302   -4.7949    1.8740 C   0  0
   11.1532   -4.2298   -0.1725 N   0  0
    6.9312   -3.6883    1.4013 O   0  0
    1.8951   -3.9994    0.2941 S   0  0
    0.5962   -4.4317    4.1313 O   0  0
    6.9857   -4.7703   -0.6256 N   0  0
    2.4675   -2.9010    1.0821 O   0  0
    1.1386   -5.1435    1.4235 N   0  0
    5.6466   -5.1536   -0.8073 C   0  0
    9.9528   -4.7686   -0.2668 C   0  0
   -0.1964   -3.8516    3.0932 C   0  0
    4.1266   -6.6996   -1.8619 C   0  0
    7.5370   -4.1082    0.4142 C   0  0
   13.0845   -2.9383    1.8110 C   0  0
    1.9963   -5.6337    2.5319 C   0  0
    9.6788   -2.8553    0.8191 C   0  0
    0.9234   -3.6997   -0.7641 O   0  0
   12.1426   -2.2460    0.8038 C   0  0
   10.9875   -3.0804    0.4925 N   0  0
    1.6405   -6.5691   -1.5890 C   0  0
    5.4234   -6.2588   -1.6261 C   0  0
    4.5588   -4.4721   -0.2460 C   0  0
   10.3737   -6.3734   -2.1498 C   0  0
   10.2193   -7.6226   -2.7450 C   0  0
    9.4941   -8.6204   -2.0916 C   0  0
    8.9320   -8.3714   -0.8386 C   0  0
    9.0882   -7.1227   -0.2437 C   0  0
    9.3266   -9.9830   -2.7389 C   0  0
   15.2374   -2.7499    3.1853 C   0  0
    2.4491   -3.7464    3.5452 H   0  0
    2.4672   -5.1476    4.6016 H   0  0
   14.8574   -1.8153    1.2818 H   0  0
   13.9533   -1.1209    2.6039 H   0  0
   -0.7420   -5.7241    2.1266 H   0  0
   -0.7797   -4.3545    1.0418 H   0  0
    7.6255   -5.0989   -1.3338 H   0  0
    0.2217   -2.8801    2.8232 H   0  0
   -1.2045   -3.6793    3.4703 H   0  0
    3.9739   -7.5626   -2.4939 H   0  0
   12.5291   -3.1882    2.7169 H   0  0
   13.4387   -3.8837    1.3961 H   0  0
    3.0147   -5.7632    2.1651 H   0  0
    1.6386   -6.6264    2.8074 H   0  0
    9.3815   -1.9767    1.3731 H   0  0
   12.6620   -2.0234   -0.1298 H   0  0
   11.7846   -1.2966    1.2053 H   0  0
    1.6726   -7.5000   -2.1566 H   0  0
    1.0914   -6.7756   -0.6716 H   0  0
    1.0744   -5.8503   -2.1810 H   0  0
    6.2518   -6.7880   -2.0762 H   0  0
    4.7223   -3.5965    0.3626 H   0  0
   10.9325   -5.6044   -2.6637 H   0  0
   10.6625   -7.8116   -3.7120 H   0  0
    8.3758   -9.1419   -0.3245 H   0  0
    8.6499   -6.9389    0.7268 H   0  0
   10.1355  -10.6462   -2.4311 H   0  0
    8.3801  -10.4428   -2.4515 H   0  0
    9.3415   -9.9089   -3.8271 H   0  0
   16.0836   -2.1057    3.4259 H   0  0
   14.7222   -2.9809    4.1183 H   0  0
   15.6356   -3.6820    2.7831 H   0  0
  1 19  1  0
  1 22  2  0
  1 16  1  0
  2 11  1  0
  2 21  1  0
  2 36  1  0
  2 37  1  0
  3  5  2  0
  3 28  1  0
  3 10  1  0
  4 16  1  0
  4 29  2  0
  4 33  1  0
  5 18  1  0
  5 26  1  0
  6 20  1  0
  6 35  1  0
  6 38  1  0
  6 39  1  0
  7 17  1  0
  7 14  1  0
  7 40  1  0
  7 41  1  0
  8 16  2  0
  8 25  1  0
  9 19  2  0
 10 14  1  0
 10 23  2  0
 10 13  2  0
 11 17  1  0
 12 15  1  0
 12 19  1  0
 12 42  1  0
 14 21  1  0
 15 28  2  0
 15 27  1  0
 17 43  1  0
 17 44  1  0
 18 27  2  0
 18 45  1  0
 20 24  1  0
 20 46  1  0
 20 47  1  0
 21 48  1  0
 21 49  1  0
 22 25  1  0
 22 50  1  0
 24 25  1  0
 24 51  1  0
 24 52  1  0
 26 53  1  0
 26 54  1  0
 26 55  1  0
 27 56  1  0
 28 57  1  0
 29 30  1  0
 29 58  1  0
 30 31  2  0
 30 59  1  0
 31 32  1  0
 31 34  1  0
 32 33  2  0
 32 60  1  0
 33 61  1  0
 34 62  1  0
 34 63  1  0
 34 64  1  0
 35 65  1  0
 35 66  1  0
 35 67  1  0
M  END
> <Name>
ligand_56

> <activity>
1

$$$$
ligand_57
  SciTegic10272118463D

 57 61  0  0  1  0            999 V2000
   -2.6995    6.9523    1.9123 O   0  5
   -1.5877    6.4550    2.2056 C   0  0
   -0.9714    6.6965    3.2692 O   0  0
   -0.9556    5.5115    1.2224 C   0  0
   -1.5966    5.2030    0.0123 C   0  0
   -1.0117    4.3279   -0.8989 C   0  0
    0.2196    3.7402   -0.6097 C   0  0
    0.8698    2.7957   -1.6114 C   0  0
    0.9220    1.4000   -1.1554 N   0  0
    2.0826    0.8451   -0.7226 C   0  0
    3.1951    1.3744   -0.6695 O   0  0
    1.7533   -0.6045   -0.2895 C   0  0
    2.1074   -0.8235    1.2110 C   0  0
    3.6214   -0.9572    1.4833 C   0  0
    4.2775   -1.9398    0.5814 N   0  0
    4.0156   -1.7388   -0.8667 C   0  0
    2.5088   -1.6305   -1.1837 C   0  0
    5.9339   -2.3965    1.0259 S   0  0
    5.9398   -2.6873    2.4651 O   0  0
    6.4030   -3.4226    0.0877 O   0  0
    6.9269   -0.9046    0.7831 C   0  0
    7.1705   -0.0929    1.8937 C   0  0
    7.9200    1.0728    1.7836 C   0  0
    8.4447    1.4533    0.5570 C   0  0
    8.2107    0.6561   -0.5556 C   0  0
    7.4603   -0.5146   -0.4572 C   0  0
    7.2271   -1.4240   -1.9105 Cl  0  0
    0.2690   -0.6765   -0.5131 C   0  0
   -0.6484   -1.7046   -0.2960 C   0  0
   -1.9946   -1.4922   -0.5943 C   0  0
   -3.2542   -2.8884   -0.3013 Br  0  0
   -2.4279   -0.2679   -1.1053 C   0  0
   -1.5091    0.7566   -1.3224 C   0  0
   -0.1647    0.5344   -1.0191 C   0  0
    0.8749    4.0480    0.5828 C   0  0
    0.2896    4.9230    1.4937 C   0  0
   -2.5539    5.6405   -0.2344 H   0  0
   -1.5200    4.1091   -1.8266 H   0  0
    1.8713    3.1771   -1.8187 H   0  0
    0.3259    2.8340   -2.5560 H   0  0
    1.6899   -0.0296    1.8337 H   0  0
    1.6254   -1.7391    1.5580 H   0  0
    4.1295   -0.0007    1.3572 H   0  0
    3.7925   -1.2664    2.5148 H   0  0
    4.5429   -0.8368   -1.1769 H   0  0
    4.4590   -2.5695   -1.4164 H   0  0
    2.0656   -2.6177   -1.0421 H   0  0
    2.3708   -1.4062   -2.2433 H   0  0
    6.7720   -0.3585    2.8620 H   0  0
    8.0935    1.6854    2.6563 H   0  0
    9.0268    2.3589    0.4682 H   0  0
    8.6180    0.9538   -1.5109 H   0  0
   -0.3317   -2.6586    0.0992 H   0  0
   -3.4723   -0.1138   -1.3333 H   0  0
   -1.8503    1.6998   -1.7211 H   0  0
    1.8353    3.6067    0.8077 H   0  0
    0.8164    5.1393    2.4125 H   0  0
  1  2  1  0
  2  3  2  0
  2  4  1  0
  4  5  2  0
  4 36  1  0
  5  6  1  0
  5 37  1  0
  6  7  2  0
  6 38  1  0
  7  8  1  0
  7 35  1  0
  8  9  1  0
  8 39  1  0
  8 40  1  0
  9 10  1  0
  9 34  1  0
 10 11  2  0
 10 12  1  0
 12 13  1  0
 12 17  1  0
 12 28  1  0
 13 14  1  0
 13 41  1  0
 13 42  1  0
 14 15  1  0
 14 43  1  0
 14 44  1  0
 15 16  1  0
 15 18  1  0
 16 17  1  0
 16 45  1  0
 16 46  1  0
 17 47  1  0
 17 48  1  0
 18 19  2  0
 18 20  2  0
 18 21  1  0
 21 22  2  0
 21 26  1  0
 22 23  1  0
 22 49  1  0
 23 24  2  0
 23 50  1  0
 24 25  1  0
 24 51  1  0
 25 26  2  0
 25 52  1  0
 26 27  1  0
 28 29  2  0
 28 34  1  0
 29 30  1  0
 29 53  1  0
 30 31  1  0
 30 32  2  0
 32 33  1  0
 32 54  1  0
 33 34  2  0
 33 55  1  0
 35 36  2  0
 35 56  1  0
 36 57  1  0
M  CHG  1   1  -1
M  END
> <Name>
ligand_57

> <activity>
1

$$$$
ligand_58
  SciTegic10272118463D

 72 76  0  0  1  0            999 V2000
    3.5159    0.2745    2.1883 O   0  0
    2.9831    0.8842    1.2603 C   0  0
    2.2113    1.9713    1.4522 N   0  0
    1.9045    2.6044    2.7359 C   0  0
    3.1245    3.2551    3.4394 C   0  0
    2.7555    3.9015    4.7900 C   0  0
    1.5950    4.9039    4.6504 C   0  0
    0.3737    4.2646    3.9645 C   0  0
    0.7484    3.6243    2.6135 C   0  0
    3.1696    0.3652   -0.1878 C   0  0  2  0  0  0
    2.8479    1.3744   -1.3510 C   0  0
    2.8952    0.7322   -2.7688 C   0  0
    2.5656    1.7360   -3.8908 C   0  0
    3.4744    2.9760   -3.8360 C   0  0
    3.4464    3.6332   -2.4452 C   0  0
    3.7765    2.6240   -1.3277 C   0  0
    2.5246   -0.9511   -0.3945 N   0  0
    3.1618   -2.0907   -0.8631 C   0  0
    4.4773   -2.3762   -1.2504 C   0  0
    4.7501   -3.6756   -1.6808 C   0  0
    3.7616   -4.6552   -1.7271 C   0  0
    2.4526   -4.3704   -1.3433 C   0  0
    2.1476   -3.0746   -0.9078 C   0  0
    0.9500   -2.5690   -0.4924 N   0  0
    1.1936   -1.3144   -0.2051 C   0  0
    0.1114   -0.4196    0.2886 C   0  0
   -0.2279   -0.4616    1.6432 C   0  0
   -1.2409    0.3561    2.1402 C   0  0
   -1.9350    1.2261    1.2984 C   0  0
   -2.9100    2.0097    1.8836 O   0  0
   -3.6161    2.9500    1.0819 C   0  0
   -1.6001    1.2566   -0.0653 C   0  0
   -0.5924    0.4320   -0.5724 C   0  0
   -0.2879    0.4814   -1.9097 O   0  0
   -1.1364   -0.3089   -2.7298 C   0  0
    1.8003    2.4067    0.6398 H   0  0
    1.5437    1.7939    3.3746 H   0  0
    3.9088    2.5154    3.6031 H   0  0
    3.5594    4.0109    2.7832 H   0  0
    2.4756    3.1207    5.4990 H   0  0
    3.6279    4.3989    5.2157 H   0  0
    1.3137    5.2891    5.6313 H   0  0
    1.9279    5.7651    4.0689 H   0  0
   -0.0545    3.5037    4.6191 H   0  0
   -0.4061    5.0131    3.8185 H   0  0
    1.0294    4.4092    1.9091 H   0  0
   -0.1322    3.1451    2.1873 H   0  0
    4.2429    0.1811   -0.2494 H   0  0
    1.8286    1.7340   -1.2095 H   0  0
    3.8843    0.3058   -2.9435 H   0  0
    2.1921   -0.0978   -2.8428 H   0  0
    2.6568    1.2507   -4.8632 H   0  0
    1.5228    2.0453   -3.8023 H   0  0
    4.4978    2.6868   -4.0803 H   0  0
    3.1711    3.6963   -4.5967 H   0  0
    4.1497    4.4663   -2.4144 H   0  0
    2.4591    4.0618   -2.2655 H   0  0
    3.7209    3.1418   -0.3708 H   0  0
    4.8152    2.3055   -1.4308 H   0  0
    5.2592   -1.6318   -1.2240 H   0  0
    5.7549   -3.9288   -1.9863 H   0  0
    4.0136   -5.6494   -2.0662 H   0  0
    1.6913   -5.1354   -1.3836 H   0  0
    0.3001   -1.1228    2.3155 H   0  0
   -1.4854    0.3194    3.1916 H   0  0
   -4.3309    3.4878    1.7045 H   0  0
   -2.9421    3.6871    0.6426 H   0  0
   -4.1777    2.4569    0.2870 H   0  0
   -2.1140    1.9138   -0.7498 H   0  0
   -0.8116   -0.2276   -3.7670 H   0  0
   -1.0937   -1.3633   -2.4507 H   0  0
   -2.1736    0.0264   -2.6783 H   0  0
  1  2  2  0
  2  3  1  0
  2 10  1  0
  3  4  1  0
  3 36  1  0
  4  5  1  0
  4  9  1  0
  4 37  1  0
  5  6  1  0
  5 38  1  0
  5 39  1  0
  6  7  1  0
  6 40  1  0
  6 41  1  0
  7  8  1  0
  7 42  1  0
  7 43  1  0
  8  9  1  0
  8 44  1  0
  8 45  1  0
  9 46  1  0
  9 47  1  0
 10 11  1  0
 10 17  1  0
 10 48  1  0
 11 12  1  0
 11 16  1  0
 11 49  1  0
 12 13  1  0
 12 50  1  0
 12 51  1  0
 13 14  1  0
 13 52  1  0
 13 53  1  0
 14 15  1  0
 14 54  1  0
 14 55  1  0
 15 16  1  0
 15 56  1  0
 15 57  1  0
 16 58  1  0
 16 59  1  0
 17 18  1  0
 17 25  1  0
 18 19  2  0
 18 23  1  0
 19 20  1  0
 19 60  1  0
 20 21  2  0
 20 61  1  0
 21 22  1  0
 21 62  1  0
 22 23  2  0
 22 63  1  0
 23 24  1  0
 24 25  2  0
 25 26  1  0
 26 27  2  0
 26 33  1  0
 27 28  1  0
 27 64  1  0
 28 29  2  0
 28 65  1  0
 29 30  1  0
 29 32  1  0
 30 31  1  0
 31 66  1  0
 31 67  1  0
 31 68  1  0
 32 33  2  0
 32 69  1  0
 33 34  1  0
 34 35  1  0
 35 70  1  0
 35 71  1  0
 35 72  1  0
M  END
> <Name>
ligand_58

> <activity>
1

$$$$
ligand_59
  SciTegic10272118463D

 66 70  0  0  1  0            999 V2000
   10.3933  -13.4743    0.3549 C   0  0
   10.3855  -14.8455    0.6179 C   0  0
   11.5684  -15.5791    0.7361 C   0  0
   11.5903  -12.7768    0.1969 C   0  0
   12.7924  -13.4878    0.3103 C   0  0
   12.7737  -14.8785    0.5807 C   0  0
   14.1162  -15.2411    0.6249 N   0  0
   14.8320  -14.0728    0.3867 C   0  0
   14.0703  -13.0254    0.1889 N   0  0
   14.6837  -16.5950    0.8301 C   0  0  1  0  0  0
   14.0514  -17.3692    2.0173 C   0  0
   14.8237  -17.3432   -0.5419 C   0  0
   14.0366  -16.7086    3.1973 N   0  0
   13.6233  -18.5128    1.8613 O   0  0
   15.7772  -18.5685   -0.4761 C   0  0
   15.9859  -19.2283   -1.8532 C   0  0
   14.6469  -19.6033   -2.5139 C   0  0
   13.7063  -18.3886   -2.6130 C   0  0
   13.4872  -17.7108   -1.2453 C   0  0
    9.2217  -12.8068    0.2486 F   0  0
    9.2028  -15.4856    0.7617 F   0  0
   16.3189  -13.9744    0.3295 C   0  0
   16.9371  -13.5882   -0.8631 C   0  0
   18.3244  -13.4881   -0.9280 C   0  0
   19.0912  -13.7674    0.2018 C   0  0
   18.4805  -14.1424    1.3973 C   0  0
   17.0933  -14.2423    1.4624 C   0  0
   20.8106  -13.6442    0.1211 Cl  0  0
   13.5054  -17.1186    4.4332 C   0  0
   14.0081  -16.4756    5.5666 C   0  0
   13.5284  -16.8072    6.8307 C   0  0
   12.5352  -17.7785    6.9680 C   0  0
   12.0168  -18.4120    5.8371 C   0  0
   12.4952  -18.0830    4.5716 C   0  0
   12.0082  -18.1366    8.3499 C   0  0
   10.8094  -17.2551    8.7728 C   0  0
   10.1864  -17.6851   10.1112 C   0  0
   10.9066  -18.2787   10.9455 O   0  5
    8.9848  -17.3871   10.2877 O   0  0
   11.5376  -16.6397    0.9365 H   0  0
   11.5866  -11.7167   -0.0089 H   0  0
   15.7055  -16.4450    1.1732 H   0  0
   15.3215  -16.6373   -1.2113 H   0  0
   14.4834  -15.8043    3.2129 H   0  0
   16.7449  -18.2678   -0.0722 H   0  0
   15.3862  -19.3200    0.2097 H   0  0
   16.5334  -18.5448   -2.5042 H   0  0
   16.6113  -20.1159   -1.7497 H   0  0
   14.8242  -20.0197   -3.5062 H   0  0
   14.1633  -20.3911   -1.9340 H   0  0
   14.1268  -17.6633   -3.3115 H   0  0
   12.7476  -18.6937   -3.0343 H   0  0
   12.8973  -18.3749   -0.6135 H   0  0
   12.8810  -16.8194   -1.4003 H   0  0
   16.3438  -13.3699   -1.7396 H   0  0
   18.8018  -13.1940   -1.8513 H   0  0
   19.0788  -14.3527    2.2717 H   0  0
   16.6227  -14.5258    2.3928 H   0  0
   14.7757  -15.7201    5.4771 H   0  0
   13.9265  -16.3068    7.7015 H   0  0
   11.2380  -19.1543    5.9362 H   0  0
   12.0577  -18.5751    3.7169 H   0  0
   11.7286  -19.1922    8.3588 H   0  0
   12.8213  -18.0477    9.0732 H   0  0
   11.1242  -16.2150    8.8637 H   0  0
   10.0393  -17.2787    7.9998 H   0  0
  1  2  2  0
  1  4  1  0
  1 20  1  0
  2  3  1  0
  2 21  1  0
  3  6  2  0
  3 40  1  0
  4  5  2  0
  4 41  1  0
  5  6  1  0
  5  9  1  0
  6  7  1  0
  7  8  1  0
  7 10  1  0
  8  9  2  0
  8 22  1  0
 10 11  1  0
 10 12  1  0
 10 42  1  0
 11 13  1  0
 11 14  2  0
 12 15  1  0
 12 19  1  0
 12 43  1  0
 13 29  1  0
 13 44  1  0
 15 16  1  0
 15 45  1  0
 15 46  1  0
 16 17  1  0
 16 47  1  0
 16 48  1  0
 17 18  1  0
 17 49  1  0
 17 50  1  0
 18 19  1  0
 18 51  1  0
 18 52  1  0
 19 53  1  0
 19 54  1  0
 22 23  2  0
 22 27  1  0
 23 24  1  0
 23 55  1  0
 24 25  2  0
 24 56  1  0
 25 26  1  0
 25 28  1  0
 26 27  2  0
 26 57  1  0
 27 58  1  0
 29 30  2  0
 29 34  1  0
 30 31  1  0
 30 59  1  0
 31 32  2  0
 31 60  1  0
 32 33  1  0
 32 35  1  0
 33 34  2  0
 33 61  1  0
 34 62  1  0
 35 36  1  0
 35 63  1  0
 35 64  1  0
 36 37  1  0
 36 65  1  0
 36 66  1  0
 37 38  1  0
 37 39  2  0
M  CHG  1  38  -1
M  END
> <Name>
ligand_59

> <activity>
1

$$$$
ligand_60
  SciTegic10272118463D

 64 68  0  0  1  0            999 V2000
   -7.2425   -6.5630    2.7615 O   0  5
   -6.4835   -7.3632    2.1682 C   0  0
   -6.6907   -8.5920    2.0583 O   0  0
   -5.1956   -6.8344    1.5157 C   0  0
   -5.1033   -5.4229    1.7274 O   0  0
   -4.0186   -4.7328    1.2218 C   0  0
   -3.9886   -3.3596    1.4611 C   0  0
   -2.9348   -2.5823    0.9894 C   0  0
   -1.8917   -3.1646    0.2707 C   0  0
   -0.8907   -2.3145   -0.1567 O   0  0
    0.2407   -2.8482   -0.8431 C   0  0
    1.2458   -1.7128   -1.1660 C   0  0  2  0  0  0
    2.5655   -2.1611   -1.8724 C   0  0
    2.2975   -2.7555   -3.2803 C   0  0
    3.5960   -3.1236   -4.0244 C   0  0
    4.4796   -4.0693   -3.1910 C   0  0
    4.7711   -3.4862   -1.7965 C   0  0
    3.4797   -3.1038   -1.0448 C   0  0
    1.5095   -0.8484    0.0083 N   0  0
    1.4691    0.5422    0.0154 C   0  0
    1.7063    1.0686    1.1900 N   0  0
    1.9325    0.0053    2.0127 C   0  0
    2.2375    0.0159    3.3802 C   0  0
    2.4262   -1.2054    4.0239 C   0  0
    2.7224   -1.2176    5.3436 F   0  0
    2.3157   -2.4108    3.3297 C   0  0
    2.5095   -3.5752    3.9900 F   0  0
    2.0116   -2.4514    1.9669 C   0  0
    1.8213   -1.2239    1.3128 C   0  0
    1.1480    1.3950   -1.1645 C   0  0
    2.0280    1.4769   -2.2471 C   0  0
    1.7103    2.2741   -3.3435 C   0  0
    0.5161    2.9928   -3.3531 C   0  0
    0.1227    3.9806   -4.7124 Cl  0  0
   -0.3610    2.9232   -2.2721 C   0  0
   -0.0433    2.1259   -1.1756 C   0  0
   -1.9172   -4.5460    0.0261 C   0  0
   -2.9717   -5.3235    0.4981 C   0  0
   -5.2253   -7.0634    0.4490 H   0  0
   -4.3419   -7.3478    1.9618 H   0  0
   -4.7893   -2.8942    2.0170 H   0  0
   -2.9265   -1.5197    1.1838 H   0  0
   -0.0996   -3.3091   -1.7715 H   0  0
    0.7072   -3.6369   -0.2568 H   0  0
    0.7088   -1.0868   -1.8798 H   0  0
    3.1509   -1.2570   -2.0396 H   0  0
    1.6810   -3.6512   -3.1958 H   0  0
    1.7260   -2.0488   -3.8838 H   0  0
    3.3578   -3.5856   -4.9833 H   0  0
    4.1530   -2.2141   -4.2550 H   0  0
    3.9806   -5.0339   -3.0846 H   0  0
    5.4149   -4.2662   -3.7164 H   0  0
    5.3466   -4.2013   -1.2072 H   0  0
    5.4026   -2.6024   -1.9007 H   0  0
    3.7646   -2.6296   -0.1070 H   0  0
    2.9399   -4.0145   -0.7834 H   0  0
    2.3242    0.9443    3.9250 H   0  0
    1.9425   -3.4012    1.4629 H   0  0
    2.9622    0.9367   -2.2382 H   0  0
    2.3904    2.3371   -4.1803 H   0  0
   -1.2839    3.4843   -2.2822 H   0  0
   -0.7244    2.0717   -0.3383 H   0  0
   -1.1305   -5.0337   -0.5287 H   0  0
   -2.9603   -6.3828    0.2924 H   0  0
  1  2  1  0
  2  3  2  0
  2  4  1  0
  4  5  1  0
  4 39  1  0
  4 40  1  0
  5  6  1  0
  6  7  2  0
  6 38  1  0
  7  8  1  0
  7 41  1  0
  8  9  2  0
  8 42  1  0
  9 10  1  0
  9 37  1  0
 10 11  1  0
 11 12  1  0
 11 43  1  0
 11 44  1  0
 12 13  1  0
 12 19  1  0
 12 45  1  0
 13 14  1  0
 13 18  1  0
 13 46  1  0
 14 15  1  0
 14 47  1  0
 14 48  1  0
 15 16  1  0
 15 49  1  0
 15 50  1  0
 16 17  1  0
 16 51  1  0
 16 52  1  0
 17 18  1  0
 17 53  1  0
 17 54  1  0
 18 55  1  0
 18 56  1  0
 19 20  1  0
 19 29  1  0
 20 21  2  0
 20 30  1  0
 21 22  1  0
 22 23  2  0
 22 29  1  0
 23 24  1  0
 23 57  1  0
 24 25  1  0
 24 26  2  0
 26 27  1  0
 26 28  1  0
 28 29  2  0
 28 58  1  0
 30 31  2  0
 30 36  1  0
 31 32  1  0
 31 59  1  0
 32 33  2  0
 32 60  1  0
 33 34  1  0
 33 35  1  0
 35 36  2  0
 35 61  1  0
 36 62  1  0
 37 38  2  0
 37 63  1  0
 38 64  1  0
M  CHG  1   1  -1
M  END
> <Name>
ligand_60

> <activity>
1

$$$$
ligand_61
  SciTegic10272118463D

 59 63  0  0  1  0            999 V2000
    5.1217    3.0137   -0.1977 C   0  0
    5.1856    1.8999    0.6423 C   0  0
    4.0456    1.1671    0.9822 C   0  0
    2.8276    1.5968    0.4376 C   0  0
    2.7495    2.7244   -0.4153 C   0  0
    3.9088    3.4432   -0.7359 C   0  0
    1.4656    2.9471   -0.8201 N   0  0
    0.7625    1.9869   -0.2714 C   0  0
    1.5216    1.1387    0.5325 N   0  0
    1.0844   -0.0364    1.3238 C   0  0  1  0  0  0
   -0.1398    0.2600    2.2650 C   0  0
   -0.4235   -0.8968    3.2686 C   0  0
   -1.6322   -0.6112    4.1822 C   0  0
   -1.4791    0.7209    4.9364 C   0  0
   -1.1942    1.8840    3.9709 C   0  0
    0.0142    1.5897    3.0608 C   0  0
    0.9793   -1.2951    0.4286 C   0  0
   -0.1026   -1.8607    0.2634 O   0  0
    2.1291   -1.6702   -0.1725 N   0  0
    2.3258   -2.6989   -1.1186 C   0  0
    3.2697   -2.5273   -2.1488 C   0  0
    3.4788   -3.5549   -3.0677 C   0  0
    2.7732   -4.7457   -2.9705 C   0  0
    1.8536   -4.9249   -1.9492 C   0  0
    1.6341   -3.9120   -1.0267 C   0  0
    4.0452   -1.2963   -2.3114 C   0  0
    4.6563   -0.3217   -2.4369 N   0  0
   -0.7023    1.8715   -0.5159 C   0  0
   -1.5617    2.8603   -0.0286 C   0  0
   -2.9339    2.7557   -0.2394 C   0  0
   -3.4433    1.6679   -0.9463 C   0  0
   -2.5898    0.6877   -1.4495 C   0  0
   -1.2178    0.7925   -1.2386 C   0  0
   -5.1445    1.5363   -1.2049 Cl  0  0
    6.3818    1.5160    1.1435 F   0  0
    6.2533    3.6915   -0.4969 F   0  0
    4.1189    0.3090    1.6334 H   0  0
    3.8689    4.3051   -1.3853 H   0  0
    1.9068   -0.2525    2.0075 H   0  0
   -1.0318    0.3543    1.6449 H   0  0
   -0.6070   -1.8358    2.7479 H   0  0
    0.4594   -1.0675    3.8868 H   0  0
   -2.5418   -0.5848    3.5799 H   0  0
   -1.7628   -1.4276    4.8937 H   0  0
   -2.3789    0.9281    5.5172 H   0  0
   -0.6634    0.6387    5.6565 H   0  0
   -2.0748    2.0684    3.3532 H   0  0
   -1.0212    2.8012    4.5352 H   0  0
    0.9205    1.5475    3.6672 H   0  0
    0.1463    2.4374    2.3897 H   0  0
    2.9290   -1.0734   -0.0224 H   0  0
    4.1941   -3.4419   -3.8713 H   0  0
    2.9442   -5.5351   -3.6878 H   0  0
    1.3111   -5.8555   -1.8679 H   0  0
    0.9260   -4.0897   -0.2309 H   0  0
   -1.1681    3.7029    0.5218 H   0  0
   -3.5985    3.5155    0.1449 H   0  0
   -2.9878   -0.1508   -2.0021 H   0  0
   -0.5592    0.0355   -1.6383 H   0  0
  1  2  1  0
  1  6  2  0
  1 36  1  0
  2  3  2  0
  2 35  1  0
  3  4  1  0
  3 37  1  0
  4  5  2  0
  4  9  1  0
  5  6  1  0
  5  7  1  0
  6 38  1  0
  7  8  2  0
  8  9  1  0
  8 28  1  0
  9 10  1  0
 10 11  1  0
 10 17  1  0
 10 39  1  0
 11 12  1  0
 11 16  1  0
 11 40  1  0
 12 13  1  0
 12 41  1  0
 12 42  1  0
 13 14  1  0
 13 43  1  0
 13 44  1  0
 14 15  1  0
 14 45  1  0
 14 46  1  0
 15 16  1  0
 15 47  1  0
 15 48  1  0
 16 49  1  0
 16 50  1  0
 17 18  2  0
 17 19  1  0
 19 20  1  0
 19 51  1  0
 20 21  2  0
 20 25  1  0
 21 22  1  0
 21 26  1  0
 22 23  2  0
 22 52  1  0
 23 24  1  0
 23 53  1  0
 24 25  2  0
 24 54  1  0
 25 55  1  0
 26 27  3  0
 28 29  2  0
 28 33  1  0
 29 30  1  0
 29 56  1  0
 30 31  2  0
 30 57  1  0
 31 32  1  0
 31 34  1  0
 32 33  2  0
 32 58  1  0
 33 59  1  0
M  END
> <Name>
ligand_61

> <activity>
1

$$$$
ligand_62
  SciTegic10272118463D

 57 60  0  0  1  0            999 V2000
   -1.5703    3.3985   -0.5024 C   0  0
   -1.7329    3.8129    0.9444 C   0  0
   -1.9651    2.9830    2.0523 C   0  0
   -1.6781    5.0858    1.5050 C   0  0
   -1.4830    6.5069    0.9890 C   0  0
   -0.8338    6.5790   -0.4053 C   0  0
   -2.8106    7.2849    1.0221 C   0  0
   -1.8753    4.9862    2.8436 O   0  0
   -2.0488    3.6495    3.1811 N   0  0
   -2.1199    1.4970    2.0486 C   0  0
   -3.2604    0.8978    1.4940 C   0  0
   -1.1233    0.6678    2.5838 C   0  0
   -1.2722   -0.7167    2.5662 C   0  0
   -2.4047   -1.3012    2.0168 C   0  0
   -3.3942   -0.4882    1.4819 C   0  0
   -4.5467    1.8439    0.8233 Cl  0  0
    0.3296    1.3210    3.2637 Cl  0  0
   -2.7382    3.7817   -1.2212 O   0  0
   -2.8351    3.4883   -2.5669 C   0  0
   -4.0114    3.8746   -3.2088 C   0  0
   -1.8395    2.8423   -3.3167 C   0  0
   -2.0213    2.5850   -4.6772 C   0  0
   -4.2002    3.6205   -4.5660 C   0  0
   -0.7352    1.8116   -5.5415 Cl  0  0
   -3.2178    2.9627   -5.3110 C   0  0
   -3.4686    2.7413   -6.7454 C   0  0
   -3.4924    1.5303   -7.3367 C   0  0
   -3.7488    1.2541   -8.7651 C   0  0
   -3.3551    0.0223   -9.2903 C   0  0
   -4.3582    2.1885   -9.6067 C   0  0
   -4.5765    1.9018  -10.9475 C   0  0
   -4.1813    0.6712  -11.4564 C   0  0
   -3.5659   -0.2872  -10.6406 C   0  0
   -3.1419   -1.6149  -11.2008 C   0  0
   -2.5990   -2.4348  -10.4247 O   0  0
   -3.3530   -1.8352  -12.4158 O   0  5
   -0.6771    3.8464   -0.9385 H   0  0
   -1.4312    2.3186   -0.5766 H   0  0
   -0.7954    7.0122    1.6693 H   0  0
   -0.6298    7.6124   -0.6879 H   0  0
    0.1179    6.0471   -0.4290 H   0  0
   -1.4789    6.1572   -1.1764 H   0  0
   -2.6740    8.3173    0.6981 H   0  0
   -3.5550    6.8287    0.3678 H   0  0
   -3.2297    7.3143    2.0288 H   0  0
   -0.4981   -1.3468    2.9797 H   0  0
   -2.5143   -2.3757    2.0049 H   0  0
   -4.2777   -0.9400    1.0546 H   0  0
   -4.7859    4.3774   -2.6483 H   0  0
   -0.9115    2.5368   -2.8580 H   0  0
   -5.1215    3.9334   -5.0364 H   0  0
   -3.6325    3.6322   -7.3334 H   0  0
   -3.3257    0.6622   -6.7136 H   0  0
   -2.8789   -0.6978   -8.6386 H   0  0
   -4.6780    3.1480   -9.2287 H   0  0
   -5.0507    2.6292  -11.5897 H   0  0
   -4.3612    0.4695  -12.5031 H   0  0
  1  2  1  0
  1 18  1  0
  1 37  1  0
  1 38  1  0
  2  3  1  0
  2  4  2  0
  3  9  2  0
  3 10  1  0
  4  5  1  0
  4  8  1  0
  5  6  1  0
  5  7  1  0
  5 39  1  0
  6 40  1  0
  6 41  1  0
  6 42  1  0
  7 43  1  0
  7 44  1  0
  7 45  1  0
  8  9  1  0
 10 11  2  0
 10 12  1  0
 11 15  1  0
 11 16  1  0
 12 13  2  0
 12 17  1  0
 13 14  1  0
 13 46  1  0
 14 15  2  0
 14 47  1  0
 15 48  1  0
 18 19  1  0
 19 20  2  0
 19 21  1  0
 20 23  1  0
 20 49  1  0
 21 22  2  0
 21 50  1  0
 22 24  1  0
 22 25  1  0
 23 25  2  0
 23 51  1  0
 25 26  1  0
 26 27  2  0
 26 52  1  0
 27 28  1  0
 27 53  1  0
 28 29  2  0
 28 30  1  0
 29 33  1  0
 29 54  1  0
 30 31  2  0
 30 55  1  0
 31 32  1  0
 31 56  1  0
 32 33  2  0
 32 57  1  0
 33 34  1  0
 34 35  2  0
 34 36  1  0
M  CHG  1  36  -1
M  END
> <Name>
ligand_62

> <activity>
1

$$$$
ligand_63
  SciTegic10272118463D

 72 76  0  0  1  0            999 V2000
   -2.9308   -0.6928    1.1405 C   0  0
   -1.7894   -0.2827    0.3962 O   0  0
   -0.5466   -0.3076    1.1012 C   0  0  1  0  0  0
    0.5865   -0.2135    0.0726 C   0  0
    1.3695    0.8320   -0.0647 N   0  0
    2.2375    0.5045   -1.0644 C   0  0
    3.2836    1.2661   -1.6019 C   0  0
    4.0462    0.7086   -2.6279 C   0  0
    5.0613    1.4264   -3.1606 F   0  0
    3.7802   -0.5746   -3.1103 C   0  0
    4.5452   -1.0803   -4.1044 F   0  0
    2.7430   -1.3550   -2.5935 C   0  0
    1.9746   -0.7933   -1.5644 C   0  0
    0.8899   -1.2376   -0.8191 N   0  0
    0.1970   -2.5375   -0.9539 C   0  0  1  0  0  0
   -0.4819   -2.6947   -2.3619 C   0  0
   -1.3638   -3.9737   -2.4599 C   0  0
   -2.0312   -4.1371   -3.8399 C   0  0
   -2.8453   -2.8927   -4.2341 C   0  0
   -1.9919   -1.6152   -4.1557 C   0  0
   -1.3264   -1.4543   -2.7749 C   0  0
    1.1318   -3.6967   -0.5382 C   0  0
    1.6751   -4.4043   -1.3879 O   0  0
    1.3353   -3.8504    0.7836 N   0  0
    2.2239   -4.8347    1.4039 C   0  0  1  0  0  0
    3.7297   -4.5059    1.2423 C   0  0
    4.6424   -5.5575    1.9051 C   0  0
    4.2809   -5.7850    3.3867 C   0  0  2  0  0  0
    5.0967   -6.7902    3.9512 O   0  0
    2.7875   -6.1327    3.5509 C   0  0
    1.8742   -5.0801    2.8896 C   0  0
   -0.5242    0.7859    2.1796 C   0  0
   -0.2132    0.4650    3.5003 C   0  0
   -0.2020    1.4509    4.4792 C   0  0
   -0.5039    2.7650    4.1472 C   0  0
   -0.8181    3.0933    2.8351 C   0  0
   -0.8296    2.1080    1.8561 C   0  0
   -3.8095   -0.6650    0.4964 H   0  0
   -2.8188   -1.7146    1.5059 H   0  0
   -3.1219   -0.0357    1.9897 H   0  0
   -0.4575   -1.2709    1.6077 H   0  0
    3.4975    2.2583   -1.2331 H   0  0
    2.5583   -2.3470   -2.9775 H   0  0
   -0.6212   -2.5480   -0.2349 H   0  0
    0.3068   -2.7974   -3.1088 H   0  0
   -0.7765   -4.8688   -2.2551 H   0  0
   -2.1373   -3.9412   -1.6907 H   0  0
   -1.2635   -4.3221   -4.5929 H   0  0
   -2.6751   -5.0175   -3.8403 H   0  0
   -3.2483   -3.0124   -5.2405 H   0  0
   -3.7059   -2.7960   -3.5702 H   0  0
   -1.2211   -1.6451   -4.9275 H   0  0
   -2.6083   -0.7427   -4.3757 H   0  0
   -2.0996   -1.2749   -2.0267 H   0  0
   -0.7109   -0.5546   -2.7943 H   0  0
    0.8708   -3.2167    1.4163 H   0  0
    2.0334   -5.7767    0.8821 H   0  0
    3.9860   -4.4243    0.1851 H   0  0
    3.9347   -3.5254    1.6753 H   0  0
    4.5581   -6.4986    1.3586 H   0  0
    5.6846   -5.2472    1.8171 H   0  0
    4.4951   -4.8716    3.9443 H   0  0
    4.8644   -6.8893    4.8774 H   0  0
    2.5875   -7.1091    3.1055 H   0  0
    2.5358   -6.2229    4.6086 H   0  0
    1.9508   -4.1413    3.4410 H   0  0
    0.8339   -5.3969    2.9796 H   0  0
    0.0237   -0.5526    3.7751 H   0  0
    0.0417    1.1950    5.4999 H   0  0
   -0.4948    3.5309    4.9087 H   0  0
   -1.0538    4.1148    2.5752 H   0  0
   -1.0758    2.3719    0.8376 H   0  0
  1  2  1  0
  1 38  1  0
  1 39  1  0
  1 40  1  0
  2  3  1  0
  3  4  1  0
  3 32  1  0
  3 41  1  0
  4  5  2  0
  4 14  1  0
  5  6  1  0
  6  7  2  0
  6 13  1  0
  7  8  1  0
  7 42  1  0
  8  9  1  0
  8 10  2  0
 10 11  1  0
 10 12  1  0
 12 13  2  0
 12 43  1  0
 13 14  1  0
 14 15  1  0
 15 16  1  0
 15 22  1  0
 15 44  1  0
 16 17  1  0
 16 21  1  0
 16 45  1  0
 17 18  1  0
 17 46  1  0
 17 47  1  0
 18 19  1  0
 18 48  1  0
 18 49  1  0
 19 20  1  0
 19 50  1  0
 19 51  1  0
 20 21  1  0
 20 52  1  0
 20 53  1  0
 21 54  1  0
 21 55  1  0
 22 23  2  0
 22 24  1  0
 24 25  1  0
 24 56  1  0
 25 26  1  0
 25 31  1  0
 25 57  1  0
 26 27  1  0
 26 58  1  0
 26 59  1  0
 27 28  1  0
 27 60  1  0
 27 61  1  0
 28 29  1  0
 28 30  1  0
 28 62  1  0
 29 63  1  0
 30 31  1  0
 30 64  1  0
 30 65  1  0
 31 66  1  0
 31 67  1  0
 32 33  2  0
 32 37  1  0
 33 34  1  0
 33 68  1  0
 34 35  2  0
 34 69  1  0
 35 36  1  0
 35 70  1  0
 36 37  2  0
 36 71  1  0
 37 72  1  0
M  END
> <Name>
ligand_63

> <activity>
1

$$$$
ligand_64
  SciTegic10272118463D

 64 68  0  0  1  0            999 V2000
   -0.9037    1.0106   -4.5990 C   0  0
   -1.2857   -0.2320   -4.0938 C   0  0
   -1.2930   -0.5035   -2.7235 C   0  0
   -0.5101    2.0452   -3.7505 C   0  0
   -0.5081    1.8035   -2.3694 C   0  0
   -0.8965    0.5356   -1.8698 C   0  0
   -0.7743    0.6509   -0.4926 N   0  0
   -0.3456    1.9546   -0.2581 C   0  0
   -0.1705    2.6508   -1.3538 N   0  0
   -1.0700   -0.4192    0.4856 C   0  0  1  0  0  0
    0.1651   -0.7653    1.3543 C   0  0
    0.1331   -0.4465    2.6626 N   0  0
    1.1413   -1.2957    0.8228 O   0  0
   -0.0793    2.5501    1.0782 C   0  0
   -1.1330    3.0227    1.8635 C   0  0
   -0.8710    3.5855    3.1096 C   0  0
    0.4442    3.6841    3.5607 C   0  0
    1.5001    3.2257    2.7745 C   0  0
    1.2382    2.6598    1.5299 C   0  0
    0.7684    4.3715    5.1098 Cl  0  0
   -2.4280   -0.1838    1.2438 C   0  0
   -3.5729    0.3386    0.3277 C   0  0
   -4.8964    0.5568    1.0874 C   0  0
   -5.3436   -0.7092    1.8383 C   0  0
   -4.2311   -1.2385    2.7597 C   0  0
   -2.9114   -1.4591    1.9946 C   0  0
    1.1924   -0.6975    3.6416 C   0  0
    0.9665    0.0904    4.9529 C   0  0
    2.0950   -0.1256    5.9805 C   0  0
    2.3222   -1.6200    6.2726 C   0  0
    2.5617   -2.4197    4.9788 C   0  0
    1.4357   -2.1986    3.9486 C   0  0
   -0.9136    1.1741   -5.6668 H   0  0
   -1.5847   -1.0078   -4.7836 H   0  0
   -1.5932   -1.4729   -2.3548 H   0  0
   -0.2166    3.0051   -4.1490 H   0  0
   -1.2211   -1.3243   -0.1039 H   0  0
   -0.7004   -0.0044    3.0208 H   0  0
   -2.1518    2.9548    1.5098 H   0  0
   -1.6853    3.9456    3.7213 H   0  0
    2.5175    3.3042    3.1284 H   0  0
    2.0558    2.3019    0.9205 H   0  0
   -2.2659    0.5835    2.0004 H   0  0
   -3.2927    1.2826   -0.1406 H   0  0
   -3.7368   -0.3667   -0.4888 H   0  0
   -4.7736    1.3754    1.7984 H   0  0
   -5.6764    0.8721    0.3933 H   0  0
   -6.2434   -0.5018    2.4188 H   0  0
   -5.6166   -1.4816    1.1175 H   0  0
   -4.0644   -0.5303    3.5729 H   0  0
   -4.5499   -2.1702    3.2287 H   0  0
   -3.0472   -2.2718    1.2790 H   0  0
   -2.1589   -1.8100    2.7004 H   0  0
    2.1031   -0.2978    3.1877 H   0  0
    0.8756    1.1548    4.7399 H   0  0
    0.0146   -0.2069    5.3963 H   0  0
    3.0186    0.3152    5.6019 H   0  0
    1.8629    0.4040    6.9054 H   0  0
    3.1676   -1.7441    6.9506 H   0  0
    1.4525   -2.0243    6.7932 H   0  0
    3.5155   -2.1216    4.5405 H   0  0
    2.6526   -3.4820    5.2091 H   0  0
    0.5123   -2.6456    4.3207 H   0  0
    1.6809   -2.7389    3.0336 H   0  0
  1  2  2  0
  1  4  1  0
  1 33  1  0
  2  3  1  0
  2 34  1  0
  3  6  2  0
  3 35  1  0
  4  5  2  0
  4 36  1  0
  5  6  1  0
  5  9  1  0
  6  7  1  0
  7  8  1  0
  7 10  1  0
  8  9  2  0
  8 14  1  0
 10 11  1  0
 10 21  1  0
 10 37  1  0
 11 12  1  0
 11 13  2  0
 12 27  1  0
 12 38  1  0
 14 15  1  0
 14 19  2  0
 15 16  2  0
 15 39  1  0
 16 17  1  0
 16 40  1  0
 17 18  2  0
 17 20  1  0
 18 19  1  0
 18 41  1  0
 19 42  1  0
 21 22  1  0
 21 26  1  0
 21 43  1  0
 22 23  1  0
 22 44  1  0
 22 45  1  0
 23 24  1  0
 23 46  1  0
 23 47  1  0
 24 25  1  0
 24 48  1  0
 24 49  1  0
 25 26  1  0
 25 50  1  0
 25 51  1  0
 26 52  1  0
 26 53  1  0
 27 28  1  0
 27 32  1  0
 27 54  1  0
 28 29  1  0
 28 55  1  0
 28 56  1  0
 29 30  1  0
 29 57  1  0
 29 58  1  0
 30 31  1  0
 30 59  1  0
 30 60  1  0
 31 32  1  0
 31 61  1  0
 31 62  1  0
 32 63  1  0
 32 64  1  0
M  END
> <Name>
ligand_64

> <activity>
1

$$$$
ligand_65
  SciTegic10272118463D

 73 77  0  0  1  0            999 V2000
   -2.5660    3.7325   -3.3383 C   0  0
   -1.1396    3.7128   -3.3452 O   0  0
   -0.4673    2.8821   -2.4679 C   0  0
    0.9266    2.8796   -2.4910 C   0  0
    1.6147    2.0430   -1.6130 C   0  0
    0.9031    1.2206   -0.7336 C   0  0
   -0.4984    1.2826   -0.7506 C   0  0
   -1.2188    0.4956    0.1335 O   0  0
   -2.6447    0.5134    0.0964 C   0  0
   -1.1770    2.0961   -1.6099 N   0  0
    1.6435    0.3256    0.2009 C   0  0
    2.4269    0.8078    1.1332 N   0  0
    2.8944   -0.2860    1.8022 C   0  0
    3.7583   -0.3337    2.9049 C   0  0
    4.0968   -1.5826    3.4240 C   0  0
    4.9275   -1.6571    4.4881 F   0  0
    3.5924   -2.7556    2.8634 C   0  0
    2.7318   -2.7414    1.7635 C   0  0
    2.3904   -1.4856    1.2400 C   0  0
    1.5895   -1.0634    0.1842 N   0  0
    0.8474   -1.9051   -0.7835 C   0  0  1  0  0  0
    1.7668   -2.3272   -1.9823 C   0  0
    0.9648   -2.8695   -3.1981 C   0  0
    1.8654   -3.1843   -4.4084 C   0  0
    3.0107   -4.1411   -4.0316 C   0  0
    3.8330   -3.5980   -2.8490 C   0  0
    2.9493   -3.2715   -1.6281 C   0  0
   -0.0173   -3.0004   -0.1108 C   0  0
    0.1166   -4.1884   -0.4034 O   0  0
   -0.9052   -2.5645    0.8039 N   0  0
   -1.8197   -3.3828    1.6037 C   0  0  2  0  0  0
   -1.1242   -4.3404    2.6029 C   0  0
   -2.1285   -5.0739    3.5134 C   0  0
   -3.2237   -5.8067    2.6905 C   0  0  2  0  0  0
   -3.9273   -4.8555    1.6878 C   0  0
   -2.9141   -4.1170    0.7903 C   0  0
   -4.2835   -6.4875    3.5931 C   0  0
   -4.2364   -6.3075    4.8315 O   0  0
   -5.1372   -7.1996    3.0181 O   0  5
   -2.9221    4.4384   -4.0885 H   0  0
   -2.9798    2.7526   -3.5818 H   0  0
   -2.9560    4.0518   -2.3706 H   0  0
    1.4646    3.5153   -3.1784 H   0  0
    2.6953    2.0301   -1.6202 H   0  0
   -3.0211    0.1860   -0.8740 H   0  0
   -3.0341   -0.1709    0.8501 H   0  0
   -3.0379    1.5075    0.3143 H   0  0
    4.1522    0.5703    3.3449 H   0  0
    3.8770   -3.7048    3.2934 H   0  0
    2.3552   -3.6634    1.3456 H   0  0
    0.0951   -1.2598   -1.2328 H   0  0
    2.2273   -1.4019   -2.3369 H   0  0
    0.4265   -3.7768   -2.9235 H   0  0
    0.2034   -2.1472   -3.4960 H   0  0
    1.2694   -3.6161   -5.2134 H   0  0
    2.2819   -2.2560   -4.8026 H   0  0
    2.5984   -5.1170   -3.7699 H   0  0
    3.6592   -4.3046   -4.8931 H   0  0
    4.6023   -4.3187   -2.5687 H   0  0
    4.3624   -2.6967   -3.1622 H   0  0
    3.5814   -2.8198   -0.8650 H   0  0
    2.5749   -4.2034   -1.2043 H   0  0
   -0.9512   -1.5693    0.9702 H   0  0
   -2.3330   -2.6287    2.2033 H   0  0
   -0.5338   -5.0784    2.0580 H   0  0
   -0.4149   -3.7850    3.2183 H   0  0
   -1.5873   -5.7820    4.1434 H   0  0
   -2.5849   -4.3419    4.1829 H   0  0
   -2.7705   -6.6366    2.1453 H   0  0
   -4.6196   -5.4091    1.0505 H   0  0
   -4.5218   -4.1151    2.2271 H   0  0
   -3.4440   -3.4064    0.1544 H   0  0
   -2.4502   -4.8362    0.1139 H   0  0
  1  2  1  0
  1 40  1  0
  1 41  1  0
  1 42  1  0
  2  3  1  0
  3  4  2  0
  3 10  1  0
  4  5  1  0
  4 43  1  0
  5  6  2  0
  5 44  1  0
  6  7  1  0
  6 11  1  0
  7  8  1  0
  7 10  2  0
  8  9  1  0
  9 45  1  0
  9 46  1  0
  9 47  1  0
 11 12  2  0
 11 20  1  0
 12 13  1  0
 13 14  2  0
 13 19  1  0
 14 15  1  0
 14 48  1  0
 15 16  1  0
 15 17  2  0
 17 18  1  0
 17 49  1  0
 18 19  2  0
 18 50  1  0
 19 20  1  0
 20 21  1  0
 21 22  1  0
 21 28  1  0
 21 51  1  0
 22 23  1  0
 22 27  1  0
 22 52  1  0
 23 24  1  0
 23 53  1  0
 23 54  1  0
 24 25  1  0
 24 55  1  0
 24 56  1  0
 25 26  1  0
 25 57  1  0
 25 58  1  0
 26 27  1  0
 26 59  1  0
 26 60  1  0
 27 61  1  0
 27 62  1  0
 28 29  2  0
 28 30  1  0
 30 31  1  0
 30 63  1  0
 31 32  1  0
 31 36  1  0
 31 64  1  0
 32 33  1  0
 32 65  1  0
 32 66  1  0
 33 34  1  0
 33 67  1  0
 33 68  1  0
 34 35  1  0
 34 37  1  0
 34 69  1  0
 35 36  1  0
 35 70  1  0
 35 71  1  0
 36 72  1  0
 36 73  1  0
 37 38  2  0
 37 39  1  0
M  CHG  1  39  -1
M  END
> <Name>
ligand_65

> <activity>
1

$$$$
ligand_66
  SciTegic10272118463D

 65 69  0  0  1  0            999 V2000
   20.7327   -1.9369    0.6657 C   0  0
   14.5204   -6.2782    2.0150 C   0  0
   18.8376   -7.0264   -1.7784 C   0  0
   19.4176   -5.2527   -0.2433 C   0  0
   15.2684   -3.9746   -0.6331 C   0  0
   14.1272   -7.0878    0.7599 C   0  0
   14.0766   -6.1521   -2.1929 O   0  0
   19.5536   -5.8671   -1.4911 C   0  0
   17.8699   -6.9785    0.4384 C   0  0
   11.7973   -6.2700    1.0599 C   0  0
   18.2434   -2.3233    0.6617 C   0  0
   11.6485   -2.7249   -0.3603 C   0  0
   11.7628   -5.1870   -1.8279 O   0  0
   17.3589   -2.9682   -0.1278 N   0  0
   13.8728   -3.9800   -0.7080 C   0  0
   17.9637   -1.4758    1.5109 O   0  0
   21.4564   -3.9450   -0.0398 N   0  0
   20.1420   -3.9811    0.0514 C   0  0
   23.9529   -3.1074    1.5225 C   0  0
   17.9927   -7.5800   -0.8150 C   0  0
   13.3971   -6.1244    2.8832 O   0  0
   17.1977   -8.8318   -1.1383 C   0  0
   12.2844   -5.4636    2.2802 C   0  0
   13.0985   -5.5036   -1.3103 S   0  0
   13.1665   -2.8281   -0.3019 C   0  0
   15.2543   -1.7257    0.2478 C   0  0
   21.8128   -2.7125    0.3429 N   0  0
   23.2229   -2.3460    0.3977 C   0  0
   18.5796   -5.8157    0.7232 C   0  0
   13.8668   -1.7134    0.1695 C   0  0
   15.9597   -2.8657   -0.1494 C   0  0
   12.9018   -6.5558    0.1127 N   0  0
   19.6110   -2.7181    0.4286 C   0  0
   25.4406   -3.3242    1.3887 C   0  0
   24.4857   -4.4914    1.2363 C   0  0
   20.8544   -0.9199    1.0093 H   0  0
   15.3134   -6.7880    2.5617 H   0  0
   14.8967   -5.2904    1.7487 H   0  0
   18.9363   -7.4886   -2.7499 H   0  0
   15.8234   -4.8511   -0.9382 H   0  0
   14.9353   -7.1146    0.0297 H   0  0
   13.9260   -8.1248    1.0306 H   0  0
   20.1998   -5.4380   -2.2433 H   0  0
   17.2228   -7.4061    1.1896 H   0  0
   11.3933   -7.2296    1.3840 H   0  0
   10.9881   -5.7666    0.5328 H   0  0
   11.1734   -3.5692    0.1344 H   0  0
   11.2806   -1.8236    0.1317 H   0  0
   11.3105   -2.6881   -1.3961 H   0  0
   17.7431   -3.6750   -0.7377 H   0  0
   23.5546   -2.9068    2.5183 H   0  0
   16.8833   -9.3524   -0.2328 H   0  0
   16.3045   -8.5706   -1.7070 H   0  0
   17.7906   -9.5278   -1.7329 H   0  0
   12.5834   -4.4544    1.9950 H   0  0
   11.4866   -5.3702    3.0170 H   0  0
   15.7618   -0.8409    0.6011 H   0  0
   23.6634   -2.5444   -0.5812 H   0  0
   23.2965   -1.2709    0.5665 H   0  0
   18.4708   -5.3484    1.6915 H   0  0
   13.3369   -0.8229    0.4756 H   0  0
   25.9562   -2.9528    0.5023 H   0  0
   26.0590   -3.2690    2.2850 H   0  0
   24.4414   -5.2401    2.0276 H   0  0
   24.3376   -4.9223    0.2454 H   0  0
  1 27  1  0
  1 33  2  0
  1 36  1  0
  2  6  1  0
  2 21  1  0
  2 37  1  0
  2 38  1  0
  3  8  1  0
  3 20  2  0
  3 39  1  0
  4 18  1  0
  4  8  2  0
  4 29  1  0
  5 15  1  0
  5 31  2  0
  5 40  1  0
  6 32  1  0
  6 41  1  0
  6 42  1  0
  7 24  2  0
  8 43  1  0
  9 29  2  0
  9 20  1  0
  9 44  1  0
 10 23  1  0
 10 32  1  0
 10 45  1  0
 10 46  1  0
 11 16  2  0
 11 14  1  0
 11 33  1  0
 12 25  1  0
 12 47  1  0
 12 48  1  0
 12 49  1  0
 13 24  2  0
 14 31  1  0
 14 50  1  0
 15 25  2  0
 15 24  1  0
 17 18  2  0
 17 27  1  0
 18 33  1  0
 19 28  1  0
 19 34  1  0
 19 35  1  0
 19 51  1  0
 20 22  1  0
 21 23  1  0
 22 52  1  0
 22 53  1  0
 22 54  1  0
 23 55  1  0
 23 56  1  0
 24 32  1  0
 25 30  1  0
 26 30  2  0
 26 31  1  0
 26 57  1  0
 27 28  1  0
 28 58  1  0
 28 59  1  0
 29 60  1  0
 30 61  1  0
 34 35  1  0
 34 62  1  0
 34 63  1  0
 35 64  1  0
 35 65  1  0
M  END
> <Name>
ligand_66

> <activity>
1

$$$$
ligand_67
  SciTegic10272118463D

 59 63  0  0  1  0            999 V2000
   -1.1724   -6.9119    0.8000 C   0  0
   -1.2918   -8.2673    1.1134 C   0  0
   -0.1828   -9.1163    1.1439 C   0  0
    0.0669   -6.3470    0.5012 C   0  0
    1.1966   -7.1756    0.5242 C   0  0
    1.0652   -8.5491    0.8465 C   0  0
    2.3620   -9.0477    0.7737 N   0  0
    3.1644   -7.9666    0.4252 C   0  0
    2.4959   -6.8517    0.2626 N   0  0
    2.8079  -10.4472    0.9729 C   0  0  1  0  0  0
    2.2262  -11.1167    2.2464 C   0  0
    2.7320  -11.2451   -0.3759 C   0  0
    2.4287  -10.4347    3.3964 N   0  0
    1.6322  -12.1921    2.1673 O   0  0
    3.5447  -12.5693   -0.3491 C   0  0
    3.5476  -13.2877   -1.7126 C   0  0
    2.1188  -13.5254   -2.2341 C   0  0
    1.3141  -12.2143   -2.2946 C   0  0
    1.3022  -11.4775   -0.9400 C   0  0
   -2.2757   -6.1296    0.7828 F   0  0
   -2.5126   -8.7771    1.3943 F   0  0
    4.6408   -8.0241    0.2233 C   0  0
    5.1745   -7.7364   -1.0361 C   0  0
    6.5518   -7.7821   -1.2359 C   0  0
    7.3938   -8.1083   -0.1742 C   0  0
    6.8688   -8.3855    1.0868 C   0  0
    5.4917   -8.3396    1.2869 C   0  0
    9.1006   -8.1656   -0.4221 Cl  0  0
    2.0217  -10.7674    4.6796 C   0  0
    2.3064   -9.9791    5.6807 N   0  0
    1.8527  -10.4312    6.8377 C   0  0
    1.1478  -11.6481    6.7854 C   0  0
    1.1217  -12.1908    5.1213 S   0  0
    2.1679   -9.5524    8.0337 C   0  0
    0.4890  -12.4453    7.8288 C   0  0
    0.4989  -11.9800    8.9897 O   0  0
   -0.0397  -13.5287    7.4908 O   0  5
   -0.3002  -10.1622    1.3855 H   0  0
    0.1493   -5.2982    0.2575 H   0  0
    3.8697  -10.3950    1.2059 H   0  0
    3.2392  -10.6198   -1.1146 H   0  0
    2.9322   -9.5632    3.3303 H   0  0
    4.5737  -12.3704   -0.0464 H   0  0
    3.1384  -13.2509    0.3982 H   0  0
    4.1039  -12.6903   -2.4367 H   0  0
    4.0771  -14.2378   -1.6317 H   0  0
    2.1540  -13.9874   -3.2214 H   0  0
    1.6074  -14.2359   -1.5826 H   0  0
    1.7448  -11.5621   -3.0560 H   0  0
    0.2919  -12.4196   -2.6149 H   0  0
    0.7046  -12.0518   -0.2321 H   0  0
    0.7867  -10.5275   -1.0739 H   0  0
    4.5229   -7.4818   -1.8598 H   0  0
    6.9634   -7.5642   -2.2105 H   0  0
    7.5259   -8.6326    1.9079 H   0  0
    5.0886   -8.5476    2.2676 H   0  0
    2.2403  -10.1197    8.9607 H   0  0
    3.1179   -9.0260    7.9295 H   0  0
    1.3980   -8.7951    8.1820 H   0  0
  1  2  2  0
  1  4  1  0
  1 20  1  0
  2  3  1  0
  2 21  1  0
  3  6  2  0
  3 38  1  0
  4  5  2  0
  4 39  1  0
  5  6  1  0
  5  9  1  0
  6  7  1  0
  7  8  1  0
  7 10  1  0
  8  9  2  0
  8 22  1  0
 10 11  1  0
 10 12  1  0
 10 40  1  0
 11 13  1  0
 11 14  2  0
 12 15  1  0
 12 19  1  0
 12 41  1  0
 13 29  1  0
 13 42  1  0
 15 16  1  0
 15 43  1  0
 15 44  1  0
 16 17  1  0
 16 45  1  0
 16 46  1  0
 17 18  1  0
 17 47  1  0
 17 48  1  0
 18 19  1  0
 18 49  1  0
 18 50  1  0
 19 51  1  0
 19 52  1  0
 22 23  2  0
 22 27  1  0
 23 24  1  0
 23 53  1  0
 24 25  2  0
 24 54  1  0
 25 26  1  0
 25 28  1  0
 26 27  2  0
 26 55  1  0
 27 56  1  0
 29 30  2  0
 29 33  1  0
 30 31  1  0
 31 32  2  0
 31 34  1  0
 32 33  1  0
 32 35  1  0
 34 57  1  0
 34 58  1  0
 34 59  1  0
 35 36  2  0
 35 37  1  0
M  CHG  1  37  -1
M  END
> <Name>
ligand_67

> <activity>
1

$$$$
ligand_68
  SciTegic10272118463D

 62 66  0  0  1  0            999 V2000
    1.5481    1.5195   -2.0218 C   0  0  2  0  0  0
    1.7128    2.9839   -2.5099 C   0  0
    1.3446    3.1254   -3.9959 C   0  0
   -0.0356    2.5089   -4.2684 C   0  0
   -0.1133    1.0739   -3.7157 C   0  0
    0.2330    1.0519   -2.3310 O   0  0
    1.8867    1.3191   -0.5123 C   0  0  1  0  0  0
    1.0203    2.1155    0.4945 C   0  0
   -0.1150    2.4743    0.1908 O   0  0
    1.5970    2.3860    1.6811 N   0  0
    1.0833    3.1871    2.8015 C   0  0
   -0.0883    2.5824    3.6174 C   0  0
   -1.4880    2.9622    3.0927 C   0  0
   -1.6412    4.4848    2.9204 C   0  0
   -0.5297    5.0851    2.0385 C   0  0
    0.8812    4.7038    2.5361 C   0  0
    2.0660   -0.1206   -0.2071 N   0  0
    3.2302   -0.8261   -0.4770 C   0  0
    4.4595   -0.4735   -1.0500 C   0  0
    5.4244   -1.4794   -1.1563 C   0  0
    5.1800   -2.7826   -0.7107 C   0  0
    3.9555   -3.1309   -0.1409 C   0  0
    2.9711   -2.1410   -0.0252 C   0  0
    1.7125   -2.2432    0.4884 N   0  0
    1.1863   -1.0501    0.3529 C   0  0
   -0.2122   -0.7971    0.7998 C   0  0
   -0.5003   -0.7982    2.1671 C   0  0
   -1.8005   -0.5626    2.6056 C   0  0
   -2.8117   -0.3312    1.6754 C   0  0
   -2.5357   -0.3529    0.3097 C   0  0
   -1.2367   -0.5958   -0.1282 C   0  0
   -4.4185   -0.0175    2.2203 Cl  0  0
    6.1387   -3.7305   -0.8291 F   0  0
    6.9532   -1.0850   -1.8585 Cl  0  0
    2.2508    0.9115   -2.5971 H   0  0
    1.0750    3.6489   -1.9264 H   0  0
    2.7369    3.3233   -2.3508 H   0  0
    1.3593    4.1745   -4.2942 H   0  0
    2.0955    2.6213   -4.6067 H   0  0
   -0.8068    3.1178   -3.7940 H   0  0
   -0.2506    2.5156   -5.3374 H   0  0
   -1.1241    0.6814   -3.8292 H   0  0
    0.5455    0.4058   -4.2732 H   0  0
    2.8810    1.7519   -0.3866 H   0  0
    2.5199    2.0054    1.8294 H   0  0
    1.9486    3.1288    3.4643 H   0  0
    0.0143    1.5002    3.6855 H   0  0
   -0.0107    2.9412    4.6451 H   0  0
   -1.6834    2.4630    2.1450 H   0  0
   -2.2503    2.5908    3.7788 H   0  0
   -2.6186    4.7140    2.4940 H   0  0
   -1.6191    4.9616    3.9015 H   0  0
   -0.6648    4.7629    1.0073 H   0  0
   -0.6276    6.1711    2.0156 H   0  0
    1.0596    5.2404    3.4694 H   0  0
    1.6365    5.0734    1.8411 H   0  0
    4.6629    0.5281   -1.3996 H   0  0
    3.7737   -4.1394    0.1998 H   0  0
    0.2843   -0.9709    2.8897 H   0  0
   -2.0197   -0.5505    3.6632 H   0  0
   -3.3243   -0.1849   -0.4089 H   0  0
   -1.0329   -0.6344   -1.1866 H   0  0
  1  2  1  0
  1  6  1  0
  1  7  1  0
  1 35  1  0
  2  3  1  0
  2 36  1  0
  2 37  1  0
  3  4  1  0
  3 38  1  0
  3 39  1  0
  4  5  1  0
  4 40  1  0
  4 41  1  0
  5  6  1  0
  5 42  1  0
  5 43  1  0
  7  8  1  0
  7 17  1  0
  7 44  1  0
  8  9  2  0
  8 10  1  0
 10 11  1  0
 10 45  1  0
 11 12  1  0
 11 16  1  0
 11 46  1  0
 12 13  1  0
 12 47  1  0
 12 48  1  0
 13 14  1  0
 13 49  1  0
 13 50  1  0
 14 15  1  0
 14 51  1  0
 14 52  1  0
 15 16  1  0
 15 53  1  0
 15 54  1  0
 16 55  1  0
 16 56  1  0
 17 18  1  0
 17 25  1  0
 18 19  2  0
 18 23  1  0
 19 20  1  0
 19 57  1  0
 20 21  2  0
 20 34  1  0
 21 22  1  0
 21 33  1  0
 22 23  2  0
 22 58  1  0
 23 24  1  0
 24 25  2  0
 25 26  1  0
 26 27  2  0
 26 31  1  0
 27 28  1  0
 27 59  1  0
 28 29  2  0
 28 60  1  0
 29 30  1  0
 29 32  1  0
 30 31  2  0
 30 61  1  0
 31 62  1  0
M  END
> <Name>
ligand_68

> <activity>
1

$$$$
ligand_69
  SciTegic10272118463D

 59 63  0  0  1  0            999 V2000
    1.1860    3.3875    0.2604 C   0  0
    0.1431    3.5050   -0.7112 C   0  0
    0.4974    2.7142   -1.7887 N   0  0
    1.7055    2.1189   -1.5207 C   0  0
    2.1851    2.4907   -0.2752 C   0  0
    3.4415    2.0522    0.3413 C   0  0
    3.7088    2.4966    1.4797 O   0  5
    4.1537    1.2636   -0.3205 O   0  0
   -0.2746    2.5348   -3.0081 C   0  0
   -0.0710    4.9032    1.6616 C   0  0
   -1.0863    5.0039    0.7079 C   0  0
   -0.9867    4.3069   -0.5021 C   0  0
    1.0549    4.1099    1.4590 C   0  0
   -2.2681    5.8719    0.9751 C   0  0
   -4.6537    6.2463    1.2123 C   0  0
   -4.4282    7.6062    1.4674 C   0  0
   -3.1218    8.0856    1.4796 C   0  0
   -2.0542    7.2289    1.2382 C   0  0
   -3.5871    5.3764    0.9732 C   0  0
   -3.8955    3.9027    0.7347 C   0  0
   -5.4238    8.5309    1.7159 O   0  0
   -6.7800    8.1020    1.7823 C   0  0
   -7.6478    9.2888    2.1418 C   0  0
   -8.6196   10.9898    3.2226 O   0  0
   -9.1661   10.9569    1.9453 N   0  0
   -8.5854    9.9496    1.3333 C   0  0
   -7.7177    9.9842    3.3440 C   0  0
   -7.0242    9.9008    4.6939 C   0  0  2  0  0  0
   -5.7205   11.1162    4.7373 Cl  0  0
   -6.4447    8.5194    5.0372 C   0  0
   -8.9489    9.6249   -0.0779 C   0  0
   -9.6687    8.4550   -0.3821 C   0  0
   -9.9802    8.1853   -1.7163 C   0  0
   -9.6214    8.9978   -2.7406 N   0  0
   -8.9260   10.1218   -2.4386 C   0  0
   -8.5693   10.4724   -1.1350 C   0  0
  -10.1923    7.3490    0.8425 Cl  0  0
   -7.6591   11.9217   -0.8745 Cl  0  0
    2.1447    1.4586   -2.2551 H   0  0
   -1.2516    2.1196   -2.7585 H   0  0
   -0.4057    3.5006   -3.4972 H   0  0
    0.2398    1.8554   -3.6892 H   0  0
   -0.1566    5.4492    2.5903 H   0  0
   -1.7594    4.3901   -1.2524 H   0  0
    1.8158    4.0559    2.2235 H   0  0
   -5.6573    5.8492    1.2007 H   0  0
   -2.9343    9.1311    1.6764 H   0  0
   -1.0498    7.6276    1.2468 H   0  0
   -3.1651    3.2613    1.2290 H   0  0
   -4.8778    3.6294    1.1222 H   0  0
   -3.8842    3.6811   -0.3324 H   0  0
   -7.0726    7.6828    0.8185 H   0  0
   -6.9053    7.3028    2.5140 H   0  0
   -7.7266   10.1759    5.4819 H   0  0
   -6.0363    8.5114    6.0482 H   0  0
   -7.2101    7.7443    4.9890 H   0  0
   -5.6349    8.2396    4.3635 H   0  0
  -10.5347    7.2976   -1.9838 H   0  0
   -8.6476   10.7489   -3.2731 H   0  0
  1  2  1  0
  1  5  1  0
  1 13  2  0
  2  3  1  0
  2 12  2  0
  3  4  1  0
  3  9  1  0
  4  5  2  0
  4 39  1  0
  5  6  1  0
  6  7  1  0
  6  8  2  0
  9 40  1  0
  9 41  1  0
  9 42  1  0
 10 11  2  0
 10 13  1  0
 10 43  1  0
 11 12  1  0
 11 14  1  0
 12 44  1  0
 13 45  1  0
 14 18  2  0
 14 19  1  0
 15 16  1  0
 15 19  2  0
 15 46  1  0
 16 17  2  0
 16 21  1  0
 17 18  1  0
 17 47  1  0
 18 48  1  0
 19 20  1  0
 20 49  1  0
 20 50  1  0
 20 51  1  0
 21 22  1  0
 22 23  1  0
 22 52  1  0
 22 53  1  0
 23 26  1  0
 23 27  2  0
 24 25  1  0
 24 27  1  0
 25 26  2  0
 26 31  1  0
 27 28  1  0
 28 29  1  0
 28 30  1  0
 28 54  1  0
 30 55  1  0
 30 56  1  0
 30 57  1  0
 31 32  2  0
 31 36  1  0
 32 33  1  0
 32 37  1  0
 33 34  2  0
 33 58  1  0
 34 35  1  0
 35 36  2  0
 35 59  1  0
 36 38  1  0
M  CHG  1   7  -1
M  END
> <Name>
ligand_69

> <activity>
1

$$$$
ligand_70
  SciTegic10272118463D

 62 66  0  0  1  0            999 V2000
    8.7057    8.2834   -0.6525 C   0  0
    8.9846    7.0209   -1.4873 C   0  0
    9.7875    7.3470   -2.7593 C   0  0
    9.6751    5.9539   -0.6568 C   0  0
   10.9041    6.2580   -0.1687 O   0  0
   11.3771    5.1698    0.5572 N   0  0
   10.4335    4.2565    0.4919 C   0  0
    9.3249    4.6761   -0.2569 C   0  0
    8.0623    3.9114   -0.5839 C   0  0
    7.0392    4.3091    0.3222 O   0  0
    5.8038    3.6949    0.2649 C   0  0
    4.8665    4.0847    1.2188 C   0  0
    3.5950    3.5171    1.2406 C   0  0
    3.2223    2.5402    0.3094 C   0  0
    4.1606    2.1510   -0.6689 C   0  0
    3.8218    1.1262   -1.7453 C   0  0
    5.4376    2.7238   -0.6794 C   0  0
    1.8534    1.9565    0.3908 C   0  0
    0.7381    2.7942    0.3201 C   0  0
   -0.5612    2.3000    0.3951 C   0  0
   -0.7683    0.9185    0.5511 C   0  0
   -1.9391    0.0780    0.6610 C   0  0
   -1.4469   -1.2097    0.7992 C   0  0
   -0.0739   -1.2240    0.7825 N   0  0
    0.7548   -2.4129    0.9050 C   0  0
    0.3821    0.0724    0.6300 C   0  0
    1.6873    0.5764    0.5557 C   0  0
   -3.3512    0.4731    0.6356 C   0  0
   -3.6049    1.6908    0.5019 O   0  0
   -4.1987   -0.4410    0.7500 O   0  5
   10.6133    2.9402    1.1718 C   0  0
   11.5179    1.9872    0.6689 C   0  0
   12.4644    2.2736   -0.7521 Cl  0  0
   11.6425    0.7641    1.3308 C   0  0
   10.9297    0.4443    2.4388 N   0  0
   10.0590    1.3680    2.9153 C   0  0
    9.8691    2.6172    2.3212 C   0  0
    8.7434    3.7220    3.0344 Cl  0  0
    8.0960    8.0509    0.2218 H   0  0
    9.6292    8.7438   -0.2985 H   0  0
    8.1666    9.0313   -1.2351 H   0  0
    8.0172    6.6328   -1.8096 H   0  0
    9.9409    6.4554   -3.3687 H   0  0
    9.2667    8.0783   -3.3784 H   0  0
   10.7698    7.7572   -2.5206 H   0  0
    7.7543    4.1039   -1.6130 H   0  0
    8.2395    2.8369   -0.5104 H   0  0
    5.1289    4.8322    1.9530 H   0  0
    2.8940    3.8354    1.9988 H   0  0
    4.4835    1.2148   -2.6079 H   0  0
    3.9215    0.1151   -1.3506 H   0  0
    2.8018    1.2568   -2.1082 H   0  0
    6.1385    2.4078   -1.4370 H   0  0
    0.8784    3.8587    0.1969 H   0  0
   -1.3970    2.9810    0.3321 H   0  0
   -1.9846   -2.1406    0.9111 H   0  0
    1.3949   -2.3173    1.7827 H   0  0
    0.1327   -3.3027    1.0107 H   0  0
    1.3749   -2.5136    0.0137 H   0  0
    2.5437   -0.0782    0.6270 H   0  0
   12.3257    0.0094    0.9692 H   0  0
    9.5060    1.0898    3.8007 H   0  0
  1  2  1  0
  1 39  1  0
  1 40  1  0
  1 41  1  0
  2  3  1  0
  2  4  1  0
  2 42  1  0
  3 43  1  0
  3 44  1  0
  3 45  1  0
  4  5  1  0
  4  8  2  0
  5  6  1  0
  6  7  2  0
  7  8  1  0
  7 31  1  0
  8  9  1  0
  9 10  1  0
  9 46  1  0
  9 47  1  0
 10 11  1  0
 11 12  2  0
 11 17  1  0
 12 13  1  0
 12 48  1  0
 13 14  2  0
 13 49  1  0
 14 15  1  0
 14 18  1  0
 15 16  1  0
 15 17  2  0
 16 50  1  0
 16 51  1  0
 16 52  1  0
 17 53  1  0
 18 19  2  0
 18 27  1  0
 19 20  1  0
 19 54  1  0
 20 21  2  0
 20 55  1  0
 21 22  1  0
 21 26  1  0
 22 23  2  0
 22 28  1  0
 23 24  1  0
 23 56  1  0
 24 25  1  0
 24 26  1  0
 25 57  1  0
 25 58  1  0
 25 59  1  0
 26 27  2  0
 27 60  1  0
 28 29  2  0
 28 30  1  0
 31 32  2  0
 31 37  1  0
 32 33  1  0
 32 34  1  0
 34 35  2  0
 34 61  1  0
 35 36  1  0
 36 37  2  0
 36 62  1  0
 37 38  1  0
M  CHG  1  30  -1
M  END
> <Name>
ligand_70

> <activity>
1

$$$$
ligand_71
  SciTegic10272118463D

 71 75  0  0  1  0            999 V2000
   -3.9365    3.6892   -2.0141 C   0  0
   -4.1330    2.2121   -1.6439 C   0  0
   -2.8361    1.5347   -1.2264 C   0  0
   -2.4442    1.5429    0.1139 C   0  0
   -1.2558    0.9258    0.4948 C   0  0
   -0.4562    0.2940   -0.4615 C   0  0
   -0.8454    0.2956   -1.8035 C   0  0
   -2.0335    0.9127   -2.1850 C   0  0
    0.8092   -0.3616   -0.0255 C   0  0
    1.8121    0.2893    0.6451 N   0  3
    2.8271   -0.5968    0.9544 C   0  0
    4.0364   -0.4117    1.6287 C   0  0
    4.8458   -1.5336    1.8019 C   0  0
    4.4654   -2.7845    1.3255 C   0  0
    3.2600   -2.9724    0.6494 C   0  0
    2.4367   -1.8523    0.4595 C   0  0
    1.1815   -1.6923   -0.1565 N   0  0
    0.3580   -2.7490   -0.7918 C   0  0  1  0  0  0
    0.7978   -3.0129   -2.2775 C   0  0
   -0.2882   -3.7658   -3.0956 C   0  0
    0.0934   -3.9328   -4.5791 C   0  0
    1.4691   -4.6038   -4.7400 C   0  0
    2.5598   -3.8424   -3.9658 C   0  0
    2.1969   -3.6593   -2.4780 C   0  0
    0.1434   -3.9825    0.1217 C   0  0
    0.3990   -5.1216   -0.2682 O   0  0
   -0.3210   -3.7250    1.3588 N   0  0
   -0.4983   -4.7037    2.4348 C   0  0
   -1.4292   -4.1791    3.5528 C   0  0
   -0.7632   -3.0753    4.4036 C   0  0
    0.5871   -3.5397    4.9863 C   0  0
    1.5253   -4.0984    3.8979 C   0  0
    0.8342   -5.1942    3.0580 C   0  0
   -4.8821    4.1455   -2.3084 H   0  0
   -3.5422    4.2602   -1.1727 H   0  0
   -3.2427    3.8004   -2.8483 H   0  0
   -4.5682    1.6732   -2.4871 H   0  0
   -4.8630    2.1258   -0.8374 H   0  0
   -3.0580    2.0270    0.8599 H   0  0
   -0.9645    0.9346    1.5355 H   0  0
   -0.2292   -0.1665   -2.5585 H   0  0
   -2.3259    0.9111   -3.2252 H   0  0
    4.3381    0.5534    2.0090 H   0  0
    5.7879   -1.4314    2.3208 H   0  0
    5.1188   -3.6301    1.4847 H   0  0
    2.9858   -3.9548    0.2948 H   0  0
   -0.6490   -2.3349   -0.8578 H   0  0
    0.8774   -2.0323   -2.7471 H   0  0
   -0.4647   -4.7543   -2.6711 H   0  0
   -1.2400   -3.2366   -3.0293 H   0  0
   -0.6686   -4.5177   -5.0958 H   0  0
    0.1066   -2.9552   -5.0636 H   0  0
    1.4173   -5.6323   -4.3792 H   0  0
    1.7340   -4.6638   -5.7964 H   0  0
    3.5127   -4.3658   -4.0541 H   0  0
    2.7092   -2.8633   -4.4239 H   0  0
    2.9679   -3.0415   -2.0211 H   0  0
    2.2428   -4.6298   -1.9842 H   0  0
   -0.5225   -2.7670    1.6032 H   0  0
   -0.9982   -5.5624    1.9795 H   0  0
   -2.3613   -3.8071    3.1245 H   0  0
   -1.7135   -5.0080    4.2032 H   0  0
   -0.6067   -2.1862    3.7908 H   0  0
   -1.4316   -2.7725    5.2105 H   0  0
    1.0718   -2.7149    5.5102 H   0  0
    0.4080   -4.3116    5.7365 H   0  0
    1.8458   -3.2856    3.2448 H   0  0
    2.4326   -4.4949    4.3551 H   0  0
    0.6376   -6.0602    3.6921 H   0  0
    1.5130   -5.5477    2.2808 H   0  0
    1.7661    1.2749    0.8614 H   0  0
  1  2  1  0
  1 34  1  0
  1 35  1  0
  1 36  1  0
  2  3  1  0
  2 37  1  0
  2 38  1  0
  3  4  2  0
  3  8  1  0
  4  5  1  0
  4 39  1  0
  5  6  2  0
  5 40  1  0
  6  7  1  0
  6  9  1  0
  7  8  2  0
  7 41  1  0
  8 42  1  0
  9 10  2  0
  9 17  1  0
 10 11  1  0
 10 71  1  0
 11 12  2  0
 11 16  1  0
 12 13  1  0
 12 43  1  0
 13 14  2  0
 13 44  1  0
 14 15  1  0
 14 45  1  0
 15 16  2  0
 15 46  1  0
 16 17  1  0
 17 18  1  0
 18 19  1  0
 18 25  1  0
 18 47  1  0
 19 20  1  0
 19 24  1  0
 19 48  1  0
 20 21  1  0
 20 49  1  0
 20 50  1  0
 21 22  1  0
 21 51  1  0
 21 52  1  0
 22 23  1  0
 22 53  1  0
 22 54  1  0
 23 24  1  0
 23 55  1  0
 23 56  1  0
 24 57  1  0
 24 58  1  0
 25 26  2  0
 25 27  1  0
 27 28  1  0
 27 59  1  0
 28 29  1  0
 28 33  1  0
 28 60  1  0
 29 30  1  0
 29 61  1  0
 29 62  1  0
 30 31  1  0
 30 63  1  0
 30 64  1  0
 31 32  1  0
 31 65  1  0
 31 66  1  0
 32 33  1  0
 32 67  1  0
 32 68  1  0
 33 69  1  0
 33 70  1  0
M  CHG  1  10   1
M  END
> <Name>
ligand_71

> <activity>
1

$$$$
ligand_72
  SciTegic10272118463D

 56 61  0  0  1  0            999 V2000
   -2.0515   -3.1011   -2.9445 Br  0  0
   -1.0151   -1.5752   -2.4760 C   0  0
   -1.5031   -0.2927   -2.7395 C   0  0
   -0.7456    0.8297   -2.3985 C   0  0
    0.5004    0.6536   -1.7907 C   0  0
    1.4244    1.6108   -1.3706 N   0  0
    1.2536    3.0687   -1.4291 C   0  0
    0.2290    3.6020   -0.4371 C   0  0
   -0.9785    4.1303   -0.8933 C   0  0
   -1.9059    4.6314    0.0160 C   0  0
   -1.6385    4.6213    1.3932 C   0  0
   -0.4139    4.0989    1.8356 C   0  0
    0.5151    3.5976    0.9283 C   0  0
   -2.6460    5.1642    2.3783 C   0  0
   -3.6481    5.9451    2.0314 N   0  0
   -4.3259    6.2189    3.1955 N   0  0
   -3.6796    5.5709    4.2137 N   0  0
   -2.6089    4.9029    3.6686 N   0  5
    2.5147    1.0525   -0.7864 C   0  0
    3.4725    1.6349   -0.2724 O   0  0
    2.3359   -0.4836   -0.8753 C   0  0
    2.3358   -1.1206    0.5457 C   0  0
    3.7326   -1.1907    1.1999 C   0  0
    4.7552   -1.7783    0.2954 N   0  0
    4.8303   -1.1805   -1.0633 C   0  0
    3.4524   -1.1166   -1.7562 C   0  0
    6.3041   -2.2086    1.0454 S   0  0
    6.0486   -2.8459    2.3424 O   0  0
    7.1658   -2.8337    0.0351 O   0  0
    6.9887   -0.5688    1.3897 C   0  0
    6.7656    0.1732    2.5436 C   0  0
    7.4060    1.4166    2.5158 C   0  0
    8.1152    1.6254    1.3404 C   0  0
    7.9936    0.2782    0.2542 S   0  0
    0.9882   -0.6141   -1.5281 C   0  0
    0.2325   -1.7395   -1.8698 C   0  0
   -2.4678   -0.1677   -3.2089 H   0  0
   -1.1338    1.8139   -2.6116 H   0  0
    2.1975    3.5807   -1.2327 H   0  0
    0.9600    3.3456   -2.4424 H   0  0
   -1.2040    4.1534   -1.9494 H   0  0
   -2.8381    5.0288   -0.3584 H   0  0
   -0.1729    4.0824    2.8886 H   0  0
    1.4542    3.2026    1.2885 H   0  0
    1.6437   -0.5994    1.2103 H   0  0
    1.9501   -2.1392    0.4766 H   0  0
    4.0773   -0.1982    1.4903 H   0  0
    3.6947   -1.7863    2.1124 H   0  0
    5.2628   -0.1847   -0.9644 H   0  0
    5.5292   -1.7661   -1.6611 H   0  0
    3.1622   -2.1361   -2.0161 H   0  0
    3.5441   -0.5950   -2.7109 H   0  0
    6.1614   -0.1719    3.3700 H   0  0
    7.3528    2.1362    3.3195 H   0  0
    8.6928    2.4954    1.0652 H   0  0
    0.6004   -2.7352   -1.6702 H   0  0
  1  2  1  0
  2  3  2  0
  2 36  1  0
  3  4  1  0
  3 37  1  0
  4  5  2  0
  4 38  1  0
  5  6  1  0
  5 35  1  0
  6  7  1  0
  6 19  1  0
  7  8  1  0
  7 39  1  0
  7 40  1  0
  8  9  2  0
  8 13  1  0
  9 10  1  0
  9 41  1  0
 10 11  2  0
 10 42  1  0
 11 12  1  0
 11 14  1  0
 12 13  2  0
 12 43  1  0
 13 44  1  0
 14 15  2  0
 14 18  1  0
 15 16  1  0
 16 17  2  0
 17 18  1  0
 19 20  2  0
 19 21  1  0
 21 22  1  0
 21 26  1  0
 21 35  1  0
 22 23  1  0
 22 45  1  0
 22 46  1  0
 23 24  1  0
 23 47  1  0
 23 48  1  0
 24 25  1  0
 24 27  1  0
 25 26  1  0
 25 49  1  0
 25 50  1  0
 26 51  1  0
 26 52  1  0
 27 28  2  0
 27 29  2  0
 27 30  1  0
 30 31  2  0
 30 34  1  0
 31 32  1  0
 31 53  1  0
 32 33  2  0
 32 54  1  0
 33 34  1  0
 33 55  1  0
 35 36  2  0
 36 56  1  0
M  CHG  1  18  -1
M  END
> <Name>
ligand_72

> <activity>
1

$$$$
ligand_73
  SciTegic10272118463D

 59 63  0  0  1  0            999 V2000
   -2.9720  -10.6082    0.6761 C   0  0
   -3.1426  -11.9492    1.0156 C   0  0
   -2.0650  -12.8345    1.0797 C   0  0
   -1.7144  -10.0811    0.3802 C   0  0
   -0.6323  -10.9642    0.4433 C   0  0
   -0.7909  -12.3198    0.7893 C   0  0
    0.4846  -12.9136    0.7603 N   0  0
    1.4020  -11.9364    0.4027 C   0  0
    0.7154  -10.7667    0.2061 N   0  3
    0.8175  -14.3361    1.0125 C   0  0  1  0  0  0
    0.1691  -14.9174    2.2962 C   0  0
    0.4228  -14.2339    3.4351 N   0  0
   -0.5120  -15.9411    2.2424 O   0  0
   -0.0516  -14.4794    4.7362 C   0  0
    0.6798  -13.9220    5.7826 C   0  0
    0.2754  -14.1008    7.0997 C   0  0
   -0.8706  -14.8312    7.3826 C   0  0
   -1.6159  -15.3782    6.3470 C   0  0
   -1.2143  -15.2019    5.0286 C   0  0
    2.8740  -12.0739    0.2265 C   0  0
    3.6879  -12.4443    1.3010 C   0  0
    5.0635  -12.5648    1.1225 C   0  0
    5.6235  -12.3091   -0.1279 C   0  0
    4.8179  -11.9312   -1.2006 C   0  0
    3.4422  -11.8104   -1.0228 C   0  0
    0.7089  -15.1737   -0.3102 C   0  0
    1.4172  -16.5539   -0.2181 C   0  0
    1.3941  -17.3203   -1.5550 C   0  0
   -0.0375  -17.4686   -2.1013 C   0  0
   -0.7375  -16.1033   -2.2277 C   0  0
   -0.7216  -15.3176   -0.9008 C   0  0
    7.3285  -12.4590   -0.3489 Cl  0  0
   -3.8369   -9.9615    0.6392 H   0  0
   -4.1362  -12.3131    1.2338 H   0  0
   -2.2267  -13.8698    1.3403 H   0  0
   -1.5938   -9.0408    0.1150 H   0  0
    1.8765  -14.3563    1.2638 H   0  0
    1.0551  -13.4515    3.3618 H   0  0
    1.5742  -13.3489    5.5833 H   0  0
    0.8528  -13.6701    7.9046 H   0  0
   -1.1852  -14.9690    8.4068 H   0  0
   -2.5132  -15.9381    6.5661 H   0  0
   -1.8308  -15.6235    4.2501 H   0  0
    3.2597  -12.6364    2.2743 H   0  0
    5.6928  -12.8533    1.9519 H   0  0
    5.2571  -11.7326   -2.1675 H   0  0
    2.8214  -11.5200   -1.8585 H   0  0
    1.2783  -14.6160   -1.0578 H   0  0
    2.4519  -16.4228    0.1018 H   0  0
    0.9445  -17.1751    0.5427 H   0  0
    2.0096  -16.7942   -2.2863 H   0  0
    1.8477  -18.3041   -1.4279 H   0  0
   -0.0172  -17.9688   -3.0704 H   0  0
   -0.6154  -18.1134   -1.4372 H   0  0
   -0.2420  -15.5146   -3.0014 H   0  0
   -1.7654  -16.2420   -2.5651 H   0  0
   -1.3767  -15.8183   -0.1878 H   0  0
   -1.1592  -14.3370   -1.0821 H   0  0
    1.1748   -9.9088   -0.0646 H   0  0
  1  2  2  0
  1  4  1  0
  1 33  1  0
  2  3  1  0
  2 34  1  0
  3  6  2  0
  3 35  1  0
  4  5  2  0
  4 36  1  0
  5  6  1  0
  5  9  1  0
  6  7  1  0
  7  8  1  0
  7 10  1  0
  8  9  2  0
  8 20  1  0
  9 59  1  0
 10 11  1  0
 10 26  1  0
 10 37  1  0
 11 12  1  0
 11 13  2  0
 12 14  1  0
 12 38  1  0
 14 15  1  0
 14 19  2  0
 15 16  2  0
 15 39  1  0
 16 17  1  0
 16 40  1  0
 17 18  2  0
 17 41  1  0
 18 19  1  0
 18 42  1  0
 19 43  1  0
 20 21  2  0
 20 25  1  0
 21 22  1  0
 21 44  1  0
 22 23  2  0
 22 45  1  0
 23 24  1  0
 23 32  1  0
 24 25  2  0
 24 46  1  0
 25 47  1  0
 26 27  1  0
 26 31  1  0
 26 48  1  0
 27 28  1  0
 27 49  1  0
 27 50  1  0
 28 29  1  0
 28 51  1  0
 28 52  1  0
 29 30  1  0
 29 53  1  0
 29 54  1  0
 30 31  1  0
 30 55  1  0
 30 56  1  0
 31 57  1  0
 31 58  1  0
M  CHG  1   9   1
M  END
> <Name>
ligand_73

> <activity>
1

$$$$
ligand_74
  SciTegic10272118463D

 63 66  0  0  1  0            999 V2000
   -1.1315    2.7570    0.7881 C   0  0
   -2.4272    2.2509    0.6999 C   0  0
   -2.8925    1.3129    1.6319 C   0  0
   -2.0441    0.8946    2.6535 C   0  0
   -0.7499    1.3954    2.7479 C   0  0
   -0.2747    2.3255    1.8150 C   0  0
   -0.6337    3.9242   -0.3915 Cl  0  0
    1.1001    2.8657    1.9312 C   0  0
    1.8188    2.9761    3.0683 C   0  0
    3.1892    3.5143    3.1874 C   0  0
    5.2545    3.6415    4.4583 C   0  0
    3.9547    3.1711    4.3032 C   0  0
    3.7589    4.3467    2.2166 C   0  0
    5.0696    4.8327    2.3533 C   0  0
    5.8096    4.4682    3.4878 C   0  0
    5.6688    5.7268    1.3052 C   0  0
    6.8401    6.1353    1.4799 O   0  0
    4.9675    6.0184    0.3090 O   0  5
   -4.1576    0.7587    1.6180 O   0  0
   -5.0576    1.0878    0.5641 C   0  0
   -6.3220    0.2718    0.7343 C   0  0
   -7.6098    0.7245    1.0691 C   0  0
   -8.4831   -0.2540    1.1551 N   0  0
   -7.7824   -1.4185    0.8669 O   0  0
   -6.4903   -1.1035    0.6026 C   0  0
   -5.5938   -2.2905    0.2716 C   0  0
   -4.3417   -1.9131   -0.5417 C   0  0
   -5.2166   -3.0607    1.5492 C   0  0
   -8.0433    2.1330    1.3113 C   0  0
   -8.8260    4.7920    1.6414 C   0  0
   -8.9773    3.8868    2.6925 C   0  0
   -8.5859    2.5589    2.5350 C   0  0
   -7.8952    3.0476    0.2635 C   0  0
   -8.2868    4.3727    0.4253 C   0  0
   -8.7659    1.4826    3.8789 Cl  0  0
   -9.3465    6.4942    1.8485 S   0  0
  -11.1526    6.4579    1.3136 C   0  0
   -9.2949    6.8020    3.2821 O   0  0
   -8.5955    7.3080    0.8860 O   0  0
   -3.0618    2.6023   -0.0993 H   0  0
   -2.3916    0.1730    3.3783 H   0  0
   -0.1177    1.0409    3.5485 H   0  0
    1.5587    3.1751    1.0040 H   0  0
    1.3633    2.6691    3.9988 H   0  0
    5.8312    3.3648    5.3286 H   0  0
    3.5416    2.5270    5.0663 H   0  0
    3.1756    4.6269    1.3512 H   0  0
    6.8214    4.8222    3.6281 H   0  0
   -5.2694    2.1570    0.5992 H   0  0
   -4.6094    0.8968   -0.4116 H   0  0
   -6.1679   -2.9712   -0.3595 H   0  0
   -3.8012   -2.8049   -0.8611 H   0  0
   -4.6042   -1.3566   -1.4421 H   0  0
   -3.6447   -1.3089    0.0390 H   0  0
   -4.6135   -3.9398    1.3192 H   0  0
   -4.6421   -2.4357    2.2347 H   0  0
   -6.1038   -3.4059    2.0817 H   0  0
   -9.3950    4.2126    3.6344 H   0  0
   -7.4817    2.7316   -0.6837 H   0  0
   -8.1715    5.0674   -0.3942 H   0  0
  -11.6989    5.7706    1.9588 H   0  0
  -11.5639    7.4624    1.4058 H   0  0
  -11.2082    6.1256    0.2776 H   0  0
  1  2  2  0
  1  6  1  0
  1  7  1  0
  2  3  1  0
  2 40  1  0
  3  4  2  0
  3 19  1  0
  4  5  1  0
  4 41  1  0
  5  6  2  0
  5 42  1  0
  6  8  1  0
  8  9  2  0
  8 43  1  0
  9 10  1  0
  9 44  1  0
 10 12  2  0
 10 13  1  0
 11 12  1  0
 11 15  2  0
 11 45  1  0
 12 46  1  0
 13 14  2  0
 13 47  1  0
 14 15  1  0
 14 16  1  0
 15 48  1  0
 16 17  2  0
 16 18  1  0
 19 20  1  0
 20 21  1  0
 20 49  1  0
 20 50  1  0
 21 22  1  0
 21 25  2  0
 22 23  2  0
 22 29  1  0
 23 24  1  0
 24 25  1  0
 25 26  1  0
 26 27  1  0
 26 28  1  0
 26 51  1  0
 27 52  1  0
 27 53  1  0
 27 54  1  0
 28 55  1  0
 28 56  1  0
 28 57  1  0
 29 32  2  0
 29 33  1  0
 30 31  2  0
 30 34  1  0
 30 36  1  0
 31 32  1  0
 31 58  1  0
 32 35  1  0
 33 34  2  0
 33 59  1  0
 34 60  1  0
 36 37  1  0
 36 38  2  0
 36 39  2  0
 37 61  1  0
 37 62  1  0
 37 63  1  0
M  CHG  1  18  -1
M  END
> <Name>
ligand_74

> <activity>
1

$$$$
ligand_75
  SciTegic10272118463D

 68 72  0  0  1  0            999 V2000
    2.6753   -3.1121    3.5173 C   0  0
    2.5244   -4.6346    3.6768 C   0  0
    1.0994   -5.0974    3.3279 C   0  0
    0.6650   -4.6151    1.9294 C   0  0
    0.7866   -3.0720    1.7584 C   0  0
    2.2377   -2.6360    2.1183 C   0  0
    0.3296   -2.5814    0.3361 C   0  0  1  0  0  0
   -1.1392   -2.8786   -0.0489 C   0  0
   -1.9583   -3.2197    0.8053 O   0  0
   -1.4586   -2.7166   -1.3476 N   0  0
   -2.7838   -2.8866   -1.9504 C   0  0  2  0  0  0
   -3.8455   -1.8626   -1.4745 C   0  0
   -5.1845   -2.0101   -2.2244 C   0  0
   -5.7273   -3.4508   -2.1643 C   0  0  2  0  0  0
   -4.6807   -4.4704   -2.6572 C   0  0
   -3.3396   -4.3327   -1.9089 C   0  0
   -6.9020   -3.5389   -2.9607 O   0  0
   -8.2447   -4.3001   -2.3196 S   0  0
   -7.7678   -5.6455   -1.9790 O   0  0
   -8.6017   -3.4746   -1.1600 O   0  0
   -9.2191   -4.2603   -3.4151 O   0  5
    0.6781   -1.1662    0.0724 N   0  0
    1.4156   -0.7082   -1.0092 C   0  0
    1.5075    0.6911   -0.8103 C   0  0
    0.8593    1.0708    0.3289 N   0  0
    0.3627   -0.0363    0.8237 C   0  0
   -0.4387   -0.0270    2.0787 C   0  0
    0.1913    0.2498    3.2952 C   0  0
   -0.5462    0.2505    4.4761 C   0  0
   -1.9138   -0.0155    4.4368 C   0  0
   -2.5503   -0.2764    3.2246 C   0  0
   -1.8128   -0.2766    2.0440 C   0  0
   -2.8272   -0.0175    5.9009 Cl  0  0
    2.2028    1.4864   -1.7311 C   0  0
    2.7896    0.8622   -2.8316 C   0  0
    2.6916   -0.5187   -3.0168 C   0  0
    2.0060   -1.3362   -2.1145 C   0  0
    3.2753   -1.0850   -4.0975 F   0  0
    3.4648    1.6115   -3.7329 F   0  0
    2.0747   -2.6059    4.2749 H   0  0
    3.7094   -2.8199    3.7038 H   0  0
    3.2399   -5.1406    3.0267 H   0  0
    2.7752   -4.9310    4.6960 H   0  0
    1.0386   -6.1850    3.3824 H   0  0
    0.4007   -4.7162    4.0744 H   0  0
    1.2744   -5.1142    1.1742 H   0  0
   -0.3564   -4.9520    1.7561 H   0  0
    0.1232   -2.6246    2.4998 H   0  0
    2.3418   -1.5521    2.0832 H   0  0
    2.9304   -3.0263    1.3710 H   0  0
    0.9215   -3.1698   -0.3663 H   0  0
   -0.7280   -2.4197   -1.9774 H   0  0
   -2.5868   -2.6627   -3.0005 H   0  0
   -4.0230   -1.9844   -0.4049 H   0  0
   -3.4673   -0.8472   -1.6014 H   0  0
   -5.9201   -1.3213   -1.8068 H   0  0
   -5.0504   -1.7159   -3.2666 H   0  0
   -5.9833   -3.6775   -1.1268 H   0  0
   -5.0655   -5.4841   -2.5394 H   0  0
   -4.5156   -4.3317   -3.7267 H   0  0
   -2.6122   -5.0241   -2.3365 H   0  0
   -3.4787   -4.6464   -0.8734 H   0  0
    1.2520    0.4540    3.3268 H   0  0
   -0.0580    0.4562    5.4173 H   0  0
   -3.6111   -0.4779    3.1973 H   0  0
   -2.3106   -0.4731    1.1055 H   0  0
    2.2839    2.5547   -1.5958 H   0  0
    1.9440   -2.4019   -2.2767 H   0  0
  1  2  1  0
  1  6  1  0
  1 40  1  0
  1 41  1  0
  2  3  1  0
  2 42  1  0
  2 43  1  0
  3  4  1  0
  3 44  1  0
  3 45  1  0
  4  5  1  0
  4 46  1  0
  4 47  1  0
  5  6  1  0
  5  7  1  0
  5 48  1  0
  6 49  1  0
  6 50  1  0
  7  8  1  0
  7 22  1  0
  7 51  1  0
  8  9  2  0
  8 10  1  0
 10 11  1  0
 10 52  1  0
 11 12  1  0
 11 16  1  0
 11 53  1  0
 12 13  1  0
 12 54  1  0
 12 55  1  0
 13 14  1  0
 13 56  1  0
 13 57  1  0
 14 15  1  0
 14 17  1  0
 14 58  1  0
 15 16  1  0
 15 59  1  0
 15 60  1  0
 16 61  1  0
 16 62  1  0
 17 18  1  0
 18 19  2  0
 18 20  2  0
 18 21  1  0
 22 23  1  0
 22 26  1  0
 23 24  2  0
 23 37  1  0
 24 25  1  0
 24 34  1  0
 25 26  2  0
 26 27  1  0
 27 28  2  0
 27 32  1  0
 28 29  1  0
 28 63  1  0
 29 30  2  0
 29 64  1  0
 30 31  1  0
 30 33  1  0
 31 32  2  0
 31 65  1  0
 32 66  1  0
 34 35  2  0
 34 67  1  0
 35 36  1  0
 35 39  1  0
 36 37  2  0
 36 38  1  0
 37 68  1  0
M  CHG  1  21  -1
M  END
> <Name>
ligand_75

> <activity>
1

$$$$
ligand_76
  SciTegic10272118463D

 57 61  0  0  1  0            999 V2000
   -2.8267    6.4222   -2.7969 O   0  5
   -1.7737    5.7929   -3.0512 C   0  0
   -1.2857    5.6798   -4.1995 O   0  0
   -1.0526    5.1340   -1.9100 C   0  0
   -1.5491    5.2269   -0.6003 C   0  0
   -0.8819    4.6156    0.4577 C   0  0
    0.2876    3.8937    0.2209 C   0  0
    1.0283    3.2378    1.3782 C   0  0
    0.9895    1.7694    1.3447 N   0  0
    2.0781    1.0458    0.9794 C   0  0
    3.1930    1.4703    0.6672 O   0  0
    1.6607   -0.4448    1.0197 C   0  0
    2.4866   -1.2171    2.0895 C   0  0
    3.9427   -1.5048    1.6643 C   0  0
    4.0294   -2.1193    0.3138 N   0  0
    3.3008   -1.3927   -0.7584 C   0  0
    1.8321   -1.1024   -0.3815 C   0  0
    5.6187   -2.7750   -0.1255 S   0  0
    6.1067   -3.5607    1.0147 O   0  0
    5.5114   -3.3983   -1.4500 O   0  0
    6.6950   -1.3424   -0.2855 C   0  0
    7.5432   -0.9959    0.7703 C   0  0
    8.3764    0.1166    0.6859 C   0  0
    8.3666    0.8986   -0.4642 C   0  0
    7.5239    0.5628   -1.5223 C   0  0
    7.5240    1.5484   -2.9417 Cl  0  0
    6.6871   -0.5534   -1.4414 C   0  0
    5.8763   -0.8576   -2.4822 F   0  0
    0.2110   -0.3615    1.4061 C   0  0
   -0.7527   -1.3524    1.5933 C   0  0
   -2.0493   -0.9840    1.9535 C   0  0
   -3.3715   -2.3284    2.2111 Br  0  0
   -2.3875    0.3589    2.1272 C   0  0
   -1.4225    1.3462    1.9407 C   0  0
   -0.1286    0.9671    1.5790 C   0  0
    0.8003    3.8041   -1.0735 C   0  0
    0.1328    4.4154   -2.1311 C   0  0
   -2.4562    5.7760   -0.3897 H   0  0
   -1.2788    4.7048    1.4584 H   0  0
    0.6023    3.5764    2.3234 H   0  0
    2.0568    3.6028    1.3574 H   0  0
    2.4790   -0.6927    3.0472 H   0  0
    2.0014   -2.1747    2.2866 H   0  0
    4.5365   -0.5902    1.6512 H   0  0
    4.4185   -2.1751    2.3806 H   0  0
    3.8392   -0.4665   -0.9581 H   0  0
    3.3475   -1.9862   -1.6719 H   0  0
    1.2907   -2.0499   -0.3970 H   0  0
    1.3653   -0.4957   -1.1603 H   0  0
    7.5588   -1.5891    1.6731 H   0  0
    9.0257    0.3724    1.5104 H   0  0
    9.0105    1.7634   -0.5332 H   0  0
   -0.5097   -2.3967    1.4628 H   0  0
   -3.3941    0.6335    2.4065 H   0  0
   -1.6899    2.3826    2.0801 H   0  0
    1.7130    3.2574   -1.2626 H   0  0
    0.5489    4.3251   -3.1247 H   0  0
  1  2  1  0
  2  3  2  0
  2  4  1  0
  4  5  2  0
  4 37  1  0
  5  6  1  0
  5 38  1  0
  6  7  2  0
  6 39  1  0
  7  8  1  0
  7 36  1  0
  8  9  1  0
  8 40  1  0
  8 41  1  0
  9 10  1  0
  9 35  1  0
 10 11  2  0
 10 12  1  0
 12 13  1  0
 12 17  1  0
 12 29  1  0
 13 14  1  0
 13 42  1  0
 13 43  1  0
 14 15  1  0
 14 44  1  0
 14 45  1  0
 15 16  1  0
 15 18  1  0
 16 17  1  0
 16 46  1  0
 16 47  1  0
 17 48  1  0
 17 49  1  0
 18 19  2  0
 18 20  2  0
 18 21  1  0
 21 22  2  0
 21 27  1  0
 22 23  1  0
 22 50  1  0
 23 24  2  0
 23 51  1  0
 24 25  1  0
 24 52  1  0
 25 26  1  0
 25 27  2  0
 27 28  1  0
 29 30  2  0
 29 35  1  0
 30 31  1  0
 30 53  1  0
 31 32  1  0
 31 33  2  0
 33 34  1  0
 33 54  1  0
 34 35  2  0
 34 55  1  0
 36 37  2  0
 36 56  1  0
 37 57  1  0
M  CHG  1   1  -1
M  END
> <Name>
ligand_76

> <activity>
1

$$$$
ligand_77
  SciTegic10272118463D

 59 63  0  0  1  0            999 V2000
    9.0321   -6.7878    0.5433 C   0  0
    8.8396   -8.1149    0.9320 C   0  0
    9.9020   -9.0176    1.0205 C   0  0
   10.3012   -6.3065    0.2239 C   0  0
   11.3855   -7.1903    0.3039 C   0  0
   11.1799   -8.5344    0.7026 C   0  0
   12.4490   -9.1035    0.6698 N   0  0
   13.3093   -8.0877    0.2672 C   0  0
   12.7015   -6.9504    0.0358 N   0  0
   12.8195  -10.5106    0.9524 C   0  0  1  0  0  0
   12.1953  -11.0753    2.2562 C   0  0
   12.7103  -11.3791   -0.3497 C   0  0
   12.4218  -10.3382    3.3671 N   0  0
   11.5500  -12.1233    2.2335 O   0  0
   13.4537  -12.7395   -0.2412 C   0  0
   13.4271  -13.5333   -1.5620 C   0  0
   11.9909  -13.7270   -2.0813 C   0  0
   11.2552  -12.3820   -2.2226 C   0  0
   11.2737  -11.5697   -0.9119 C   0  0
    7.9718   -5.9511    0.4719 F   0  0
    7.5920   -8.5433    1.2307 F   0  0
   14.7817   -8.2341    0.0815 C   0  0
   15.6091   -8.5305    1.1689 C   0  0
   16.9829   -8.6600    0.9834 C   0  0
   17.5284   -8.4855   -0.2872 C   0  0
   16.7104   -8.1788   -1.3732 C   0  0
   15.3365   -8.0494   -1.1880 C   0  0
   19.2312   -8.6466   -0.5170 Cl  0  0
   11.9882  -10.5757    4.6629 C   0  0
   12.3030   -9.7468    5.6205 N   0  0
   11.8173  -10.0999    6.8028 C   0  0
   11.0598  -11.2894    6.8068 C   0  0
   11.0157  -11.9232    5.1753 S   0  0
   12.1457   -9.1764    7.9776 C   0  0
   12.8911   -8.1241    7.6260 F   0  0
   11.0330   -8.6931    8.5298 F   0  0
   12.8221   -9.8291    8.9226 F   0  0
   10.3656  -12.0076    7.8855 C   0  0
   10.4298  -11.5114    9.0314 O   0  0
    9.7593  -13.0626    7.5907 O   0  5
    9.7282  -10.0405    1.3198 H   0  0
   10.4402   -5.2791   -0.0783 H   0  0
   13.8811  -10.5005    1.1921 H   0  0
   13.2532  -10.8236   -1.1182 H   0  0
   12.9683   -9.4976    3.2557 H   0  0
   14.4898  -12.5764    0.0584 H   0  0
   13.0087  -13.3559    0.5399 H   0  0
   14.0175  -13.0073   -2.3139 H   0  0
   13.9065  -14.5031   -1.4230 H   0  0
   12.0078  -14.2455   -3.0406 H   0  0
   11.4399  -14.3722   -1.3951 H   0  0
   11.7232  -11.7970   -3.0160 H   0  0
   10.2256  -12.5526   -2.5395 H   0  0
   10.6433  -12.0716   -0.1779 H   0  0
   10.8086  -10.6037   -1.1037 H   0  0
   15.1904   -8.6588    2.1567 H   0  0
   17.6217   -8.8923    1.8230 H   0  0
   17.1382   -8.0405   -2.3554 H   0  0
   14.7036   -7.8100   -2.0307 H   0  0
  1  2  2  0
  1  4  1  0
  1 20  1  0
  2  3  1  0
  2 21  1  0
  3  6  2  0
  3 41  1  0
  4  5  2  0
  4 42  1  0
  5  6  1  0
  5  9  1  0
  6  7  1  0
  7  8  1  0
  7 10  1  0
  8  9  2  0
  8 22  1  0
 10 11  1  0
 10 12  1  0
 10 43  1  0
 11 13  1  0
 11 14  2  0
 12 15  1  0
 12 19  1  0
 12 44  1  0
 13 29  1  0
 13 45  1  0
 15 16  1  0
 15 46  1  0
 15 47  1  0
 16 17  1  0
 16 48  1  0
 16 49  1  0
 17 18  1  0
 17 50  1  0
 17 51  1  0
 18 19  1  0
 18 52  1  0
 18 53  1  0
 19 54  1  0
 19 55  1  0
 22 23  2  0
 22 27  1  0
 23 24  1  0
 23 56  1  0
 24 25  2  0
 24 57  1  0
 25 26  1  0
 25 28  1  0
 26 27  2  0
 26 58  1  0
 27 59  1  0
 29 30  2  0
 29 33  1  0
 30 31  1  0
 31 32  2  0
 31 34  1  0
 32 33  1  0
 32 38  1  0
 34 35  1  0
 34 36  1  0
 34 37  1  0
 38 39  2  0
 38 40  1  0
M  CHG  1  40  -1
M  END
> <Name>
ligand_77

> <activity>
1

$$$$
ligand_78
  SciTegic10272118463D

 59 63  0  0  1  0            999 V2000
    4.2847   -1.6958   -0.8296 C   0  0
    4.3441   -2.9627   -1.4136 C   0  0
    5.4700   -3.7797   -1.2867 C   0  0
    5.3547   -1.1906   -0.0920 C   0  0
    6.4972   -1.9890    0.0517 C   0  0
    6.5463   -3.2744   -0.5425 C   0  0
    7.8014   -3.7671   -0.1995 N   0  0
    8.4038   -2.7715    0.5622 C   0  0
    7.6557   -1.7068    0.7148 N   0  0
    8.4071   -5.0605   -0.5960 C   0  0  1  0  0  0
    7.4670   -6.2795   -0.4013 C   0  0
    9.1514   -4.9200   -1.9699 C   0  0
    6.9393   -6.4108    0.8361 N   0  0
    7.2571   -7.0625   -1.3278 O   0  0
   10.1415   -6.0844   -2.2504 C   0  0
   10.9411   -5.8786   -3.5518 C   0  0
   10.0146   -5.6372   -4.7573 C   0  0
    9.0503   -4.4645   -4.5025 C   0  0
    8.2428   -4.6490   -3.2017 C   0  0
    3.1726   -0.9409   -0.9808 F   0  0
    3.2856   -3.4150   -2.1238 F   0  0
    9.7715   -2.8514    1.1509 C   0  0
   10.0708   -3.8087    2.1251 C   0  0
   11.3502   -3.8702    2.6709 C   0  0
   12.3263   -2.9698    2.2478 C   0  0
   12.0313   -2.0059    1.2854 C   0  0
   10.7519   -1.9443    0.7392 C   0  0
   13.9122   -3.0465    2.9241 Cl  0  0
    6.0199   -7.3577    1.3091 C   0  0
    6.0385   -7.5045    2.6557 N   0  0
    5.1825   -8.3930    3.2144 C   0  0
    4.2768   -9.1594    2.4693 C   0  0
    4.2668   -8.9836    1.0779 C   0  0
    5.1406   -8.0755    0.4852 C   0  0
    3.3505  -10.1288    3.1391 C   0  0
    3.4141  -10.2322    4.3856 O   0  5
    2.5634  -10.7826    2.4169 O   0  0
    5.4944   -4.7547   -1.7502 H   0  0
    5.3008   -0.2087    0.3542 H   0  0
    9.1941   -5.2598    0.1289 H   0  0
    9.7825   -4.0333   -1.8717 H   0  0
    7.2271   -5.7392    1.5312 H   0  0
   10.8361   -6.1936   -1.4163 H   0  0
    9.6063   -7.0313   -2.3213 H   0  0
   11.6136   -5.0275   -3.4342 H   0  0
   11.5770   -6.7448   -3.7388 H   0  0
   10.6085   -5.4442   -5.6515 H   0  0
    9.4402   -6.5423   -4.9616 H   0  0
    9.6200   -3.5357   -4.4445 H   0  0
    8.3712   -4.3507   -5.3483 H   0  0
    7.5367   -5.4680   -3.3386 H   0  0
    7.6440   -3.7532   -3.0432 H   0  0
    9.3143   -4.5034    2.4610 H   0  0
   11.5822   -4.6122    3.4210 H   0  0
   12.7898   -1.3075    0.9635 H   0  0
   10.5240   -1.1953   -0.0058 H   0  0
    5.2396   -8.4771    4.2907 H   0  0
    3.5854   -9.5410    0.4504 H   0  0
    5.1076   -7.9381   -0.5844 H   0  0
  1  2  2  0
  1  4  1  0
  1 20  1  0
  2  3  1  0
  2 21  1  0
  3  6  2  0
  3 38  1  0
  4  5  2  0
  4 39  1  0
  5  6  1  0
  5  9  1  0
  6  7  1  0
  7  8  1  0
  7 10  1  0
  8  9  2  0
  8 22  1  0
 10 11  1  0
 10 12  1  0
 10 40  1  0
 11 13  1  0
 11 14  2  0
 12 15  1  0
 12 19  1  0
 12 41  1  0
 13 29  1  0
 13 42  1  0
 15 16  1  0
 15 43  1  0
 15 44  1  0
 16 17  1  0
 16 45  1  0
 16 46  1  0
 17 18  1  0
 17 47  1  0
 17 48  1  0
 18 19  1  0
 18 49  1  0
 18 50  1  0
 19 51  1  0
 19 52  1  0
 22 23  2  0
 22 27  1  0
 23 24  1  0
 23 53  1  0
 24 25  2  0
 24 54  1  0
 25 26  1  0
 25 28  1  0
 26 27  2  0
 26 55  1  0
 27 56  1  0
 29 30  2  0
 29 34  1  0
 30 31  1  0
 31 32  2  0
 31 57  1  0
 32 33  1  0
 32 35  1  0
 33 34  2  0
 33 58  1  0
 34 59  1  0
 35 36  1  0
 35 37  2  0
M  CHG  1  36  -1
M  END
> <Name>
ligand_78

> <activity>
1

$$$$
ligand_79
  SciTegic10272118463D

 71 76  0  0  1  0            999 V2000
   -0.6719    2.8444   -0.8634 O   0  0
    0.0680    2.6334    0.0986 C   0  0
   -0.2654    2.9636    1.3613 N   0  0
   -1.5147    3.6025    1.7797 C   0  0
   -1.8362    3.3334    3.2678 C   0  0
   -3.1627    3.9797    3.7155 C   0  0
   -3.2003    5.4868    3.4017 C   0  0
   -2.9024    5.7640    1.9164 C   0  0
   -1.5766    5.1184    1.4659 C   0  0
    1.4585    1.9891   -0.0974 C   0  0  2  0  0  0
    1.9095    1.7495   -1.5796 C   0  0
    3.4515    1.6674   -1.7326 C   0  0
    3.8881    1.5444   -3.2071 C   0  0
    3.1936    0.3673   -3.9184 C   0  0
    1.6617    0.4321   -3.7671 C   0  0
    1.2427    0.5445   -2.2886 C   0  0
    1.7713    0.8538    0.8070 N   0  0
    2.9080    0.7782    1.6014 C   0  0
    3.9935    1.6361    1.8251 C   0  0
    4.9775    1.2069    2.7171 C   0  0
    4.8940   -0.0232    3.3634 C   0  0
    3.8162   -0.8772    3.1394 C   0  0
    2.8135   -0.4730    2.2489 C   0  0
    1.6831   -1.1358    1.8740 N   0  0
    1.0756   -0.3386    1.0292 C   0  0
   -0.1852   -0.7546    0.4176 C   0  0
   -1.4569   -0.2036    0.5336 C   0  0
   -2.4352   -0.8909   -0.1890 C   0  0
   -1.9531   -2.0198   -0.8435 C   0  0
   -0.2487   -2.2105   -0.5360 S   0  0
   -2.6845   -2.9942   -1.7087 C   0  0
   -2.3011   -4.3339   -1.7895 C   0  0
   -3.0012   -5.2227   -2.5959 C   0  0
   -4.0946   -4.7833   -3.3293 C   0  0
   -4.4878   -3.4543   -3.2541 C   0  0
   -3.7876   -2.5660   -2.4472 C   0  0
    0.4027    2.7781    2.0949 H   0  0
   -2.3073    3.1173    1.2035 H   0  0
   -1.8772    2.2585    3.4513 H   0  0
   -1.0239    3.7134    3.8898 H   0  0
   -3.9947    3.4842    3.2125 H   0  0
   -3.3142    3.8178    4.7835 H   0  0
   -4.1730    5.9003    3.6709 H   0  0
   -2.4670    6.0051    4.0216 H   0  0
   -3.7190    5.3764    1.3051 H   0  0
   -2.8730    6.8394    1.7366 H   0  0
   -0.7439    5.6242    1.9574 H   0  0
   -1.4398    5.2864    0.3967 H   0  0
    2.0912    2.8086    0.2461 H   0  0
    1.6124    2.6381   -2.1419 H   0  0
    3.9221    2.5476   -1.2926 H   0  0
    3.8327    0.8092   -1.1772 H   0  0
    3.6531    2.4720   -3.7315 H   0  0
    4.9710    1.4286   -3.2666 H   0  0
    3.4649    0.3559   -4.9747 H   0  0
    3.5580   -0.5726   -3.5004 H   0  0
    1.2753    1.2893   -4.3207 H   0  0
    1.2059   -0.4512   -4.2164 H   0  0
    1.5360   -0.3752   -1.7852 H   0  0
    0.1562    0.6095   -2.2205 H   0  0
    4.0821    2.5935    1.3340 H   0  0
    5.8271    1.8454    2.9109 H   0  0
    5.6766   -0.3196    4.0467 H   0  0
    3.7593   -1.8312    3.6426 H   0  0
   -1.6785    0.6718    1.1231 H   0  0
   -3.4692   -0.5808   -0.2206 H   0  0
   -1.4577   -4.6989   -1.2220 H   0  0
   -2.6951   -6.2571   -2.6506 H   0  0
   -4.6389   -5.4742   -3.9562 H   0  0
   -5.3387   -3.1102   -3.8235 H   0  0
   -4.1071   -1.5348   -2.4044 H   0  0
  1  2  2  0
  2  3  1  0
  2 10  1  0
  3  4  1  0
  3 37  1  0
  4  5  1  0
  4  9  1  0
  4 38  1  0
  5  6  1  0
  5 39  1  0
  5 40  1  0
  6  7  1  0
  6 41  1  0
  6 42  1  0
  7  8  1  0
  7 43  1  0
  7 44  1  0
  8  9  1  0
  8 45  1  0
  8 46  1  0
  9 47  1  0
  9 48  1  0
 10 11  1  0
 10 17  1  0
 10 49  1  0
 11 12  1  0
 11 16  1  0
 11 50  1  0
 12 13  1  0
 12 51  1  0
 12 52  1  0
 13 14  1  0
 13 53  1  0
 13 54  1  0
 14 15  1  0
 14 55  1  0
 14 56  1  0
 15 16  1  0
 15 57  1  0
 15 58  1  0
 16 59  1  0
 16 60  1  0
 17 18  1  0
 17 25  1  0
 18 19  2  0
 18 23  1  0
 19 20  1  0
 19 61  1  0
 20 21  2  0
 20 62  1  0
 21 22  1  0
 21 63  1  0
 22 23  2  0
 22 64  1  0
 23 24  1  0
 24 25  2  0
 25 26  1  0
 26 27  2  0
 26 30  1  0
 27 28  1  0
 27 65  1  0
 28 29  2  0
 28 66  1  0
 29 30  1  0
 29 31  1  0
 31 32  2  0
 31 36  1  0
 32 33  1  0
 32 67  1  0
 33 34  2  0
 33 68  1  0
 34 35  1  0
 34 69  1  0
 35 36  2  0
 35 70  1  0
 36 71  1  0
M  END
> <Name>
ligand_79

> <activity>
1

$$$$
ligand_80
  SciTegic10272118463D

 61 65  0  0  1  0            999 V2000
   -4.9389    5.9376    3.2295 O   0  5
   -4.0161    5.5109    3.9608 C   0  0
   -4.0286    5.5384    5.2114 O   0  0
   -2.7625    4.9027    3.3110 C   0  0
   -2.9004    4.9437    1.8881 O   0  0
   -1.8854    4.4440    1.0955 C   0  0
   -2.0833    4.5133   -0.2839 C   0  0
   -1.1166    4.0343   -1.1634 C   0  0
    0.0585    3.4702   -0.6653 C   0  0
    1.1271    2.9603   -1.6228 C   0  0
    1.2800    1.4992   -1.6090 N   0  0
    2.3316    0.9089   -0.9863 C   0  0
    3.2634    1.4619   -0.3976 O   0  0
    2.1456   -0.6203   -1.1429 C   0  0
    2.0659   -1.3100    0.2511 C   0  0
    3.4276   -1.4275    0.9698 C   0  0
    4.4848   -2.0008    0.0963 N   0  0
    4.6384   -1.3391   -1.2245 C   0  0
    3.3015   -1.2305   -1.9882 C   0  0
    5.9844   -2.4712    0.9207 S   0  0
    5.6085   -3.2314    2.1193 O   0  0
    6.8843   -3.0855   -0.0621 O   0  0
    6.7291   -0.9236    1.4872 C   0  0
    6.4839   -0.5225    2.8027 C   0  0
    7.0176    0.6580    3.3073 C   0  0
    7.8112    1.4654    2.5054 C   0  0
    8.0635    1.0791    1.1957 C   0  0
    7.5334   -0.1021    0.6789 C   0  0
    7.9081   -0.4781   -0.9679 Cl  0  0
    0.8334   -0.7106   -1.8694 C   0  0
    0.0855   -1.8100   -2.2910 C   0  0
   -1.1237   -1.5990   -2.9540 C   0  0
   -2.1517   -3.0924   -3.5328 Br  0  0
   -1.5877   -0.3056   -3.1981 C   0  0
   -0.8379    0.7905   -2.7771 C   0  0
    0.3697    0.5685   -2.1129 C   0  0
    0.2726    3.4082    0.7127 C   0  0
   -0.6954    3.8878    1.5908 C   0  0
   -2.6532    3.8738    3.6587 H   0  0
   -1.8907    5.4763    3.6307 H   0  0
   -2.9938    4.9445   -0.6737 H   0  0
   -1.2857    4.1024   -2.2282 H   0  0
    2.0648    3.4537   -1.3603 H   0  0
    0.8888    3.2768   -2.6391 H   0  0
    1.3492   -0.8031    0.9004 H   0  0
    1.6695   -2.3188    0.1241 H   0  0
    3.7752   -0.4534    1.3153 H   0  0
    3.3325   -2.0557    1.8559 H   0  0
    5.0682   -0.3523   -1.0529 H   0  0
    5.3643   -1.9030   -1.8110 H   0  0
    3.0158   -2.2347   -2.3063 H   0  0
    3.4507   -0.6708   -2.9137 H   0  0
    5.8663   -1.1262    3.4514 H   0  0
    6.8126    0.9483    4.3274 H   0  0
    8.2267    2.3834    2.8945 H   0  0
    8.6802    1.7090    0.5711 H   0  0
    0.4285   -2.8183   -2.1110 H   0  0
   -2.5249   -0.1531   -3.7129 H   0  0
   -1.2008    1.7880   -2.9725 H   0  0
    1.1863    2.9847    1.1046 H   0  0
   -0.5051    3.8215    2.6510 H   0  0
  1  2  1  0
  2  3  2  0
  2  4  1  0
  4  5  1  0
  4 39  1  0
  4 40  1  0
  5  6  1  0
  6  7  2  0
  6 38  1  0
  7  8  1  0
  7 41  1  0
  8  9  2  0
  8 42  1  0
  9 10  1  0
  9 37  1  0
 10 11  1  0
 10 43  1  0
 10 44  1  0
 11 12  1  0
 11 36  1  0
 12 13  2  0
 12 14  1  0
 14 15  1  0
 14 19  1  0
 14 30  1  0
 15 16  1  0
 15 45  1  0
 15 46  1  0
 16 17  1  0
 16 47  1  0
 16 48  1  0
 17 18  1  0
 17 20  1  0
 18 19  1  0
 18 49  1  0
 18 50  1  0
 19 51  1  0
 19 52  1  0
 20 21  2  0
 20 22  2  0
 20 23  1  0
 23 24  2  0
 23 28  1  0
 24 25  1  0
 24 53  1  0
 25 26  2  0
 25 54  1  0
 26 27  1  0
 26 55  1  0
 27 28  2  0
 27 56  1  0
 28 29  1  0
 30 31  2  0
 30 36  1  0
 31 32  1  0
 31 57  1  0
 32 33  1  0
 32 34  2  0
 34 35  1  0
 34 58  1  0
 35 36  2  0
 35 59  1  0
 37 38  2  0
 37 60  1  0
 38 61  1  0
M  CHG  1   1  -1
M  END
> <Name>
ligand_80

> <activity>
1

$$$$
ligand_81
  SciTegic10272118463D

 61 64  0  0  1  0            999 V2000
   -1.0467    2.2846    2.2142 C   0  0
   -2.2706    1.6176    2.2012 C   0  0
   -2.8708    1.2513    0.9888 C   0  0
   -2.2277    1.5599   -0.2068 C   0  0
   -1.0064    2.2253   -0.2015 C   0  0
   -0.4038    2.6014    1.0055 C   0  0
   -0.3594    2.6899    3.7520 Cl  0  0
    0.9057    3.2949    1.0033 C   0  0
    1.8537    3.2031    0.0470 C   0  0
    3.1602    3.8920    0.0425 C   0  0
    5.0585    4.7109   -1.2314 C   0  0
    3.8309    4.0598   -1.1703 C   0  0
    3.7496    4.3974    1.2074 C   0  0
    4.9885    5.0579    1.1684 C   0  0
    5.6347    5.2079   -0.0675 C   0  0
    5.6115    5.5937    2.4261 C   0  0
    6.7198    6.1704    2.3343 O   0  0
    4.9914    5.4373    3.5033 O   0  5
   -4.0778    0.5892    0.8830 O   0  0
   -4.8144    0.2766    2.0612 C   0  0
   -6.1077   -0.4016    1.6634 C   0  0
   -7.4049    0.1422    1.6376 C   0  0
   -8.3133   -0.7469    1.2994 N   0  0
   -7.6278   -1.9342    1.0757 O   0  0
   -6.3053   -1.7257    1.2865 C   0  0
   -5.4181   -2.9469    1.0818 C   0  0
   -3.9885   -2.5963    0.6280 C   0  0
   -5.4098   -3.8346    2.3380 C   0  0
   -7.8245    1.5432    1.9532 C   0  0
   -8.6570    4.1441    2.6292 C   0  0
   -9.2748    3.0393    3.1996 C   0  0
   -8.8622    1.7536    2.8649 C   0  0
   -7.2167    2.6636    1.3673 C   0  0
   -7.6284    3.9489    1.7164 C   0  0
   -6.1984    2.5362    0.4559 O   0  0
   -6.6267    2.2813   -0.8748 C   0  0
   -2.7405    1.3884    3.1453 H   0  0
   -2.6813    1.2826   -1.1471 H   0  0
   -0.5413    2.4553   -1.1486 H   0  0
    1.0894    3.9455    1.8451 H   0  0
    1.6747    2.5522   -0.7967 H   0  0
    5.5621    4.8310   -2.1792 H   0  0
    3.3973    3.6832   -2.0857 H   0  0
    3.2455    4.2682    2.1546 H   0  0
    6.5891    5.7106   -0.1377 H   0  0
   -4.2333   -0.3681    2.7219 H   0  0
   -5.0174    1.1850    2.6308 H   0  0
   -5.8503   -3.5372    0.2718 H   0  0
   -3.4337   -3.4956    0.3582 H   0  0
   -3.9977   -1.9479   -0.2491 H   0  0
   -3.4202   -2.0938    1.4102 H   0  0
   -4.8158   -4.7360    2.1823 H   0  0
   -4.9911   -3.3069    3.1961 H   0  0
   -6.4184   -4.1525    2.6054 H   0  0
   -8.9732    5.1433    2.8908 H   0  0
  -10.0768    3.1787    3.9096 H   0  0
   -9.3538    0.9102    3.3286 H   0  0
   -7.1460    4.8048    1.2674 H   0  0
   -7.1799    1.3441   -0.9524 H   0  0
   -5.7542    2.2033   -1.5232 H   0  0
   -7.2531    3.0902   -1.2544 H   0  0
  1  2  2  0
  1  6  1  0
  1  7  1  0
  2  3  1  0
  2 37  1  0
  3  4  2  0
  3 19  1  0
  4  5  1  0
  4 38  1  0
  5  6  2  0
  5 39  1  0
  6  8  1  0
  8  9  2  0
  8 40  1  0
  9 10  1  0
  9 41  1  0
 10 12  2  0
 10 13  1  0
 11 12  1  0
 11 15  2  0
 11 42  1  0
 12 43  1  0
 13 14  2  0
 13 44  1  0
 14 15  1  0
 14 16  1  0
 15 45  1  0
 16 17  2  0
 16 18  1  0
 19 20  1  0
 20 21  1  0
 20 46  1  0
 20 47  1  0
 21 22  1  0
 21 25  2  0
 22 23  2  0
 22 29  1  0
 23 24  1  0
 24 25  1  0
 25 26  1  0
 26 27  1  0
 26 28  1  0
 26 48  1  0
 27 49  1  0
 27 50  1  0
 27 51  1  0
 28 52  1  0
 28 53  1  0
 28 54  1  0
 29 32  2  0
 29 33  1  0
 30 31  2  0
 30 34  1  0
 30 55  1  0
 31 32  1  0
 31 56  1  0
 32 57  1  0
 33 34  2  0
 33 35  1  0
 34 58  1  0
 35 36  1  0
 36 59  1  0
 36 60  1  0
 36 61  1  0
M  CHG  1  18  -1
M  END
> <Name>
ligand_81

> <activity>
1

$$$$
ligand_82
  SciTegic10272118463D

 74 78  0  0  1  0            999 V2000
    2.7351    5.8636   -1.0496 C   0  0
    1.9665    4.5596   -1.1612 C   0  0
    0.6094    4.5130   -0.8370 C   0  0
   -0.0953    3.3151   -0.9440 C   0  0
    0.5487    2.1466   -1.3698 C   0  0
   -0.1451    0.9616   -1.4926 O   0  0
   -0.7476    0.4483   -0.3033 C   0  0
    0.2847   -0.3172    0.5129 C   0  0
    0.9577    0.2580    1.4778 N   0  0
    1.8188   -0.6993    1.9279 C   0  0
    2.7684   -0.6097    2.9550 C   0  0
    3.5459   -1.7339    3.2322 C   0  0
    3.3928   -2.9169    2.5100 C   0  0
    4.1698   -3.9803    2.8149 F   0  0
    2.4569   -3.0332    1.4802 C   0  0
    1.6668   -1.9074    1.2028 C   0  0
    0.6487   -1.6408    0.2921 N   0  0
    0.0781   -2.5594   -0.7226 C   0  0  1  0  0  0
    0.8810   -2.4733   -2.0662 C   0  0
    0.1323   -3.1049   -3.2719 C   0  0
    0.8887   -2.9104   -4.6006 C   0  0
    2.3341   -3.4334   -4.5141 C   0  0
    3.0972   -2.7945   -3.3397 C   0  0
    2.3532   -2.9678   -2.0000 C   0  0
   -0.2439   -3.9714   -0.1678 C   0  0
    0.2045   -4.9872   -0.6997 O   0  0
   -1.0248   -4.0103    0.9282 N   0  0
   -1.3875   -5.2118    1.6851 C   0  0
   -2.6366   -4.9923    2.5702 C   0  0
   -2.3440   -4.0910    3.7897 C   0  0
   -1.1657   -4.6278    4.6269 C   0  0
    0.0864   -4.8812    3.7642 C   0  0
   -0.2308   -5.7782    2.5483 C   0  0
    1.9084    2.1956   -1.7120 C   0  0
    2.6303    0.9467   -2.1909 C   0  0
    2.6102    3.4007   -1.6017 C   0  0
    3.7749    5.6846   -0.7729 H   0  0
    2.7213    6.3899   -2.0043 H   0  0
    2.2989    6.5173   -0.2932 H   0  0
    0.0965    5.4042   -0.5055 H   0  0
   -1.1474    3.2988   -0.7015 H   0  0
   -1.5840   -0.1795   -0.6040 H   0  0
   -1.2204    1.2296    0.2940 H   0  0
    2.8969    0.3035    3.5175 H   0  0
    4.2830   -1.6880    4.0204 H   0  0
    2.3566   -3.9591    0.9341 H   0  0
   -0.9143   -2.1764   -0.9530 H   0  0
    0.9365   -1.4098   -2.3027 H   0  0
   -0.0158   -4.1729   -3.1125 H   0  0
   -0.8653   -2.6725   -3.3602 H   0  0
    0.3579   -3.4155   -5.4085 H   0  0
    0.9006   -1.8506   -4.8601 H   0  0
    2.3216   -4.5177   -4.3924 H   0  0
    2.8584   -3.2374   -5.4502 H   0  0
    4.0969   -3.2247   -3.2674 H   0  0
    3.2400   -1.7316   -3.5393 H   0  0
    2.9029   -2.4254   -1.2319 H   0  0
    2.3850   -4.0189   -1.7128 H   0  0
   -1.3484   -3.1356    1.3134 H   0  0
   -1.6555   -5.9656    0.9404 H   0  0
   -3.4483   -4.5661    1.9787 H   0  0
   -3.0029   -5.9585    2.9214 H   0  0
   -2.1156   -3.0796    3.4497 H   0  0
   -3.2349   -4.0065    4.4132 H   0  0
   -0.9300   -3.9298    5.4312 H   0  0
   -1.4632   -5.5594    5.1111 H   0  0
    0.4849   -3.9263    3.4193 H   0  0
    0.8715   -5.3360    4.3694 H   0  0
   -0.4998   -6.7752    2.9006 H   0  0
    0.6669   -5.9126    1.9434 H   0  0
    2.1359    0.5399   -3.0733 H   0  0
    3.6692    1.1485   -2.4543 H   0  0
    2.6258    0.1860   -1.4098 H   0  0
    3.6590    3.4386   -1.8595 H   0  0
  1  2  1  0
  1 37  1  0
  1 38  1  0
  1 39  1  0
  2  3  2  0
  2 36  1  0
  3  4  1  0
  3 40  1  0
  4  5  2  0
  4 41  1  0
  5  6  1  0
  5 34  1  0
  6  7  1  0
  7  8  1  0
  7 42  1  0
  7 43  1  0
  8  9  2  0
  8 17  1  0
  9 10  1  0
 10 11  2  0
 10 16  1  0
 11 12  1  0
 11 44  1  0
 12 13  2  0
 12 45  1  0
 13 14  1  0
 13 15  1  0
 15 16  2  0
 15 46  1  0
 16 17  1  0
 17 18  1  0
 18 19  1  0
 18 25  1  0
 18 47  1  0
 19 20  1  0
 19 24  1  0
 19 48  1  0
 20 21  1  0
 20 49  1  0
 20 50  1  0
 21 22  1  0
 21 51  1  0
 21 52  1  0
 22 23  1  0
 22 53  1  0
 22 54  1  0
 23 24  1  0
 23 55  1  0
 23 56  1  0
 24 57  1  0
 24 58  1  0
 25 26  2  0
 25 27  1  0
 27 28  1  0
 27 59  1  0
 28 29  1  0
 28 33  1  0
 28 60  1  0
 29 30  1  0
 29 61  1  0
 29 62  1  0
 30 31  1  0
 30 63  1  0
 30 64  1  0
 31 32  1  0
 31 65  1  0
 31 66  1  0
 32 33  1  0
 32 67  1  0
 32 68  1  0
 33 69  1  0
 33 70  1  0
 34 35  1  0
 34 36  2  0
 35 71  1  0
 35 72  1  0
 35 73  1  0
 36 74  1  0
M  END
> <Name>
ligand_82

> <activity>
1

$$$$
ligand_83
  SciTegic10272118463D

 57 61  0  0  1  0            999 V2000
   -0.5271    7.4631    1.9948 O   0  5
   -1.3127    6.9443    1.1683 C   0  0
   -2.4620    7.3800    0.9260 O   0  0
   -0.8486    5.7256    0.4227 C   0  0
    0.4292    5.1906    0.6496 C   0  0
    0.8586    4.0606   -0.0406 C   0  0
    0.0133    3.4419   -0.9619 C   0  0
    0.4917    2.2156   -1.7272 C   0  0
    0.6313    1.0170   -0.8890 N   0  0
    1.8526    0.5658   -0.5059 C   0  0
    2.9540    1.0383   -0.7967 O   0  0
    1.6126   -0.6741    0.3900 C   0  0
    2.2168   -0.4526    1.8079 C   0  0
    3.7563   -0.5625    1.8557 C   0  0
    4.2606   -1.7947    1.1946 N   0  0
    3.7544   -2.0236   -0.1828 C   0  0
    2.2148   -1.9510   -0.2655 C   0  0
    5.9735   -2.1648    1.4765 S   0  0
    6.2244   -2.0152    2.9154 O   0  0
    6.2886   -3.4424    0.8276 O   0  0
    6.8953   -0.8512    0.6378 C   0  0
    7.3073    0.2402    1.4101 C   0  0
    8.0138    1.3002    0.8540 C   0  0
    8.3216    1.2821   -0.4988 C   0  0
    7.9218    0.2067   -1.2882 C   0  0
    8.3326    0.2427   -2.9696 Cl  0  0
    7.2080   -0.8681   -0.7356 C   0  0
    6.7303   -2.1758   -1.7709 Cl  0  0
    0.1126   -0.7451    0.4439 C   0  0
   -0.7468   -1.6219    1.1061 C   0  0
   -2.1257   -1.4496    0.9821 C   0  0
   -3.3067   -2.6402    1.8820 Br  0  0
   -2.6487   -0.4145    0.2056 C   0  0
   -1.7879    0.4587   -0.4557 C   0  0
   -0.4099    0.2786   -0.3238 C   0  0
   -1.2538    3.9701   -1.2078 C   0  0
   -1.6829    5.1004   -0.5173 C   0  0
    1.1022    5.6465    1.3622 H   0  0
    1.8467    3.6647    0.1454 H   0  0
    1.4407    2.4746   -2.2004 H   0  0
   -0.2046    1.9958   -2.5374 H   0  0
    1.9028    0.5070    2.2238 H   0  0
    1.8089   -1.2032    2.4872 H   0  0
    4.2263    0.2918    1.3675 H   0  0
    4.1019   -0.5583    2.8898 H   0  0
    4.2124   -1.2779   -0.8325 H   0  0
    4.1059   -2.9983   -0.5224 H   0  0
    1.8110   -2.8315    0.2374 H   0  0
    1.8970   -2.0469   -1.3057 H   0  0
    7.0749    0.2803    2.4643 H   0  0
    8.3198    2.1330    1.4702 H   0  0
    8.8699    2.1044   -0.9353 H   0  0
   -0.3604   -2.4283    1.7118 H   0  0
   -3.7178   -0.2901    0.1158 H   0  0
   -2.1990    1.2548   -1.0574 H   0  0
   -1.9102    3.5085   -1.9309 H   0  0
   -2.6716    5.4861   -0.7231 H   0  0
  1  2  1  0
  2  3  2  0
  2  4  1  0
  4  5  2  0
  4 37  1  0
  5  6  1  0
  5 38  1  0
  6  7  2  0
  6 39  1  0
  7  8  1  0
  7 36  1  0
  8  9  1  0
  8 40  1  0
  8 41  1  0
  9 10  1  0
  9 35  1  0
 10 11  2  0
 10 12  1  0
 12 13  1  0
 12 17  1  0
 12 29  1  0
 13 14  1  0
 13 42  1  0
 13 43  1  0
 14 15  1  0
 14 44  1  0
 14 45  1  0
 15 16  1  0
 15 18  1  0
 16 17  1  0
 16 46  1  0
 16 47  1  0
 17 48  1  0
 17 49  1  0
 18 19  2  0
 18 20  2  0
 18 21  1  0
 21 22  2  0
 21 27  1  0
 22 23  1  0
 22 50  1  0
 23 24  2  0
 23 51  1  0
 24 25  1  0
 24 52  1  0
 25 26  1  0
 25 27  2  0
 27 28  1  0
 29 30  2  0
 29 35  1  0
 30 31  1  0
 30 53  1  0
 31 32  1  0
 31 33  2  0
 33 34  1  0
 33 54  1  0
 34 35  2  0
 34 55  1  0
 36 37  2  0
 36 56  1  0
 37 57  1  0
M  CHG  1   1  -1
M  END
> <Name>
ligand_83

> <activity>
1

$$$$
ligand_84
  SciTegic10272118463D

136142  0  0  1  0            999 V2000
   -3.9243    8.8640   -2.8834 C   0  0  2  0  0  0
   -4.0661   10.2574   -2.7485 O   0  0
   -4.5540   10.9288   -3.9175 C   0  0  2  0  0  0
   -3.6182   10.7002   -5.1327 C   0  0  1  0  0  0
   -3.3541    9.1899   -5.3344 C   0  0  2  0  0  0
   -2.9303    8.5462   -4.0019 C   0  0
   -4.7197   12.4140   -3.5527 C   0  0
   -4.1665   11.2926   -6.2968 O   0  0
   -2.3009    8.9355   -6.2647 O   0  0
   -2.6936    8.7625   -7.6207 C   0  0
   -5.1237    8.1993   -3.1723 O   0  0
   -6.2339    8.3616   -2.2797 C   0  0  2  0  0  0
   -6.0922    7.5397   -0.9742 C   0  0  2  0  0  0
   -7.4313    7.5050   -0.2027 C   0  0
   -8.5912    7.0842   -1.1038 C   0  0  1  0  0  0
   -8.6621    7.9359   -2.2196 O   0  0
   -7.4982    7.9112   -3.0545 C   0  0  1  0  0  0
   -7.7966    8.7858   -4.2827 C   0  0
   -5.0711    8.0994   -0.1497 O   0  0
   -4.5733    7.2545    0.8807 C   0  0
   -8.4034    5.7376   -1.4446 O   0  0
   -9.4326    5.1086   -2.2172 C   0  0  1  0  0  0
   -8.8959    3.7579   -2.7796 C   0  0  2  0  0  0
   -8.4125    2.7963   -1.6962 C   0  0
  -11.9150    5.3742   -1.9617 C   0  0
  -10.7434    4.9608   -1.4306 C   0  0
  -10.6282    4.3381   -0.0409 C   0  0
  -13.3085    5.1375   -1.3935 C   0  0
  -14.1200    4.0968   -2.1964 C   0  0  2  0  0  0
  -13.3398    2.7827   -2.4256 C   0  0
  -14.0936    1.8254   -3.3602 C   0  0  1  0  0  0
  -14.5795    2.5795   -4.6114 C   0  0
  -15.3387    3.8687   -4.2572 C   0  0  1  0  0  0
  -14.5096    4.6783   -3.4483 O   0  0
  -17.8464    5.4076   -4.3884 C   0  0  1  0  0  0
  -16.6110    5.8696   -5.1780 C   0  0
  -15.6990    4.6799   -5.5144 C   0  0
  -16.5271    3.4935   -3.5920 O   0  0
  -17.3779    4.5716   -3.1636 C   0  0  2  0  0  0
  -18.5129    3.9707   -2.2822 C   0  0  2  0  0  0
  -18.7382    6.6093   -4.0161 C   0  0
  -13.2620    0.7539   -3.8055 O   0  0
  -12.8308   -0.2304   -2.9846 C   0  0
  -11.9156   -1.2237   -3.7278 C   0  0  1  0  0  0
  -13.0986   -0.3378   -1.7862 O   0  0
  -10.6135   -1.6381   -2.9523 C   0  0  2  0  0  0
  -10.9388   -2.6966   -1.8865 C   0  0  1  0  0  0
  -11.5286   -4.0152   -2.4553 C   0  0  1  0  0  0
  -12.5857   -3.7087   -3.5297 C   0  0
  -12.7519   -2.4708   -4.0606 C   0  0
  -13.4648   -4.8707   -3.9654 C   0  0
  -10.5247   -4.8643   -2.9841 O   0  0
   -9.6956   -2.8215   -1.2261 O   0  0
   -9.2656   -1.4877   -0.9840 C   0  0
   -9.8146   -0.6320   -2.1279 C   0  0
   -9.7794   -2.1618   -3.9784 O   0  0
   -9.5923    0.6793   -2.3608 C   0  0
   -8.7306    1.4978   -1.5177 C   0  0
   -7.7930    3.9879   -3.8304 C   0  0
  -17.9318    3.3300   -0.9946 C   0  0
  -18.9775    2.9436    0.0647 C   0  0
  -19.4166    2.9869   -3.0610 C   0  0
   -3.5436    8.5358   -1.9174 H   0  0
   -5.5446   10.5400   -4.1552 H   0  0
   -2.6669   11.2005   -4.9437 H   0  0
   -4.2640    8.6871   -5.6731 H   0  0
   -1.9517    8.9186   -3.6946 H   0  0
   -2.8438    7.4632   -4.1000 H   0  0
   -5.1476   12.9833   -4.3782 H   0  0
   -5.3834   12.5324   -2.6957 H   0  0
   -3.7622   12.8677   -3.2949 H   0  0
   -3.5483   11.1644   -7.0203 H   0  0
   -1.8125    8.5458   -8.2245 H   0  0
   -3.3823    7.9234   -7.7294 H   0  0
   -3.1624    9.6545   -8.0341 H   0  0
   -6.3397    9.4205   -2.0355 H   0  0
   -5.7927    6.5246   -1.2461 H   0  0
   -7.3921    6.8184    0.6431 H   0  0
   -7.6603    8.4940    0.1967 H   0  0
   -9.5551    7.2087   -0.6066 H   0  0
   -7.3445    6.8935   -3.4168 H   0  0
   -8.6930    8.4396   -4.7979 H   0  0
   -7.9596    9.8260   -3.9991 H   0  0
   -6.9770    8.7573   -5.0013 H   0  0
   -3.7625    7.7637    1.4012 H   0  0
   -5.3376    7.0155    1.6201 H   0  0
   -4.1731    6.3242    0.4751 H   0  0
   -9.6356    5.7437   -3.0831 H   0  0
   -9.7244    3.2874   -3.3091 H   0  0
   -7.7316    3.2381   -0.9822 H   0  0
  -11.9111    5.8227   -2.9454 H   0  0
  -11.3796    4.7157    0.6504 H   0  0
  -10.7361    3.2553   -0.1032 H   0  0
   -9.6611    4.5553    0.4127 H   0  0
  -13.2603    4.8036   -0.3592 H   0  0
  -13.8399    6.0895   -1.3706 H   0  0
  -15.0171    3.8733   -1.6176 H   0  0
  -12.3680    2.9887   -2.8747 H   0  0
  -13.1393    2.3043   -1.4667 H   0  0
  -14.9521    1.3938   -2.8415 H   0  0
  -13.7279    2.8532   -5.2371 H   0  0
  -15.2279    1.9415   -5.2137 H   0  0
  -18.4233    4.7614   -5.0509 H   0  0
  -16.9125    6.3719   -6.0984 H   0  0
  -16.0501    6.6051   -4.5982 H   0  0
  -14.7802    5.0219   -5.9931 H   0  0
  -16.2012    4.0161   -6.2201 H   0  0
  -16.7986    5.2377   -2.5204 H   0  0
  -19.1428    4.7970   -1.9521 H   0  0
  -19.6826    6.2906   -3.5756 H   0  0
  -18.2423    7.2697   -3.3035 H   0  0
  -18.9869    7.2024   -4.8970 H   0  0
  -11.6190   -0.7486   -4.6647 H   0  0
  -11.6653   -2.3104   -1.1671 H   0  0
  -11.9917   -4.5681   -1.6368 H   0  0
  -13.5271   -2.3537   -4.8051 H   0  0
  -14.2142   -4.5674   -4.6979 H   0  0
  -12.8597   -5.6575   -4.4161 H   0  0
  -13.9895   -5.2904   -3.1068 H   0  0
  -10.9269   -5.7048   -3.2135 H   0  0
   -9.6601   -1.1508   -0.0237 H   0  0
   -8.1779   -1.4583   -0.9145 H   0  0
   -9.1150   -2.7150   -3.5595 H   0  0
  -10.0474    1.1165   -3.2369 H   0  0
   -8.2690    1.0188   -0.6662 H   0  0
   -6.9087    4.4491   -3.3884 H   0  0
   -7.4804    3.0473   -4.2859 H   0  0
   -8.1379    4.6378   -4.6354 H   0  0
  -17.3373    2.4516   -1.2511 H   0  0
  -17.2378    4.0311   -0.5287 H   0  0
  -18.4915    2.5842    0.9722 H   0  0
  -19.5976    3.7972    0.3401 H   0  0
  -19.6348    2.1476   -0.2845 H   0  0
  -20.2341    2.6144   -2.4446 H   0  0
  -19.8799    3.4606   -3.9258 H   0  0
  -18.8530    2.1241   -3.4177 H   0  0
  1  2  1  0
  1  6  1  0
  1 11  1  0
  1 63  1  0
  2  3  1  0
  3  4  1  0
  3  7  1  0
  3 64  1  0
  4  5  1  0
  4  8  1  0
  4 65  1  0
  5  6  1  0
  5  9  1  0
  5 66  1  0
  6 67  1  0
  6 68  1  0
  7 69  1  0
  7 70  1  0
  7 71  1  0
  8 72  1  0
  9 10  1  0
 10 73  1  0
 10 74  1  0
 10 75  1  0
 11 12  1  0
 12 13  1  0
 12 17  1  0
 12 76  1  0
 13 14  1  0
 13 19  1  0
 13 77  1  0
 14 15  1  0
 14 78  1  0
 14 79  1  0
 15 16  1  0
 15 21  1  0
 15 80  1  0
 16 17  1  0
 17 18  1  0
 17 81  1  0
 18 82  1  0
 18 83  1  0
 18 84  1  0
 19 20  1  0
 20 85  1  0
 20 86  1  0
 20 87  1  0
 21 22  1  0
 22 23  1  0
 22 26  1  0
 22 88  1  0
 23 24  1  0
 23 59  1  0
 23 89  1  0
 24 58  2  0
 24 90  1  0
 25 26  2  0
 25 28  1  0
 25 91  1  0
 26 27  1  0
 27 92  1  0
 27 93  1  0
 27 94  1  0
 28 29  1  0
 28 95  1  0
 28 96  1  0
 29 30  1  0
 29 34  1  0
 29 97  1  0
 30 31  1  0
 30 98  1  0
 30 99  1  0
 31 32  1  0
 31 42  1  0
 31100  1  0
 32 33  1  0
 32101  1  0
 32102  1  0
 33 34  1  0
 33 37  1  0
 33 38  1  0
 35 36  1  0
 35 39  1  0
 35 41  1  0
 35103  1  0
 36 37  1  0
 36104  1  0
 36105  1  0
 37106  1  0
 37107  1  0
 38 39  1  0
 39 40  1  0
 39108  1  0
 40 60  1  0
 40 62  1  0
 40109  1  0
 41110  1  0
 41111  1  0
 41112  1  0
 42 43  1  0
 43 44  1  0
 43 45  2  0
 44 46  1  0
 44 50  1  0
 44113  1  0
 46 47  1  0
 46 55  1  0
 46 56  1  0
 47 48  1  0
 47 53  1  0
 47114  1  0
 48 49  1  0
 48 52  1  0
 48115  1  0
 49 50  2  0
 49 51  1  0
 50116  1  0
 51117  1  0
 51118  1  0
 51119  1  0
 52120  1  0
 53 54  1  0
 54 55  1  0
 54121  1  0
 54122  1  0
 55 57  2  0
 56123  1  0
 57 58  1  0
 57124  1  0
 58125  1  0
 59126  1  0
 59127  1  0
 59128  1  0
 60 61  1  0
 60129  1  0
 60130  1  0
 61131  1  0
 61132  1  0
 61133  1  0
 62134  1  0
 62135  1  0
 62136  1  0
M  END
> <Name>
ligand_84

> <activity>
1

$$$$
ligand_85
  SciTegic10272118463D

 69 73  0  0  1  0            999 V2000
   12.5023  -10.6365   -2.4514 C   0  0  2  0  0  0
   13.8583  -10.6086   -1.7049 C   0  0
   12.4542   -9.8701   -3.8260 C   0  0
   14.6871   -9.5738   -1.9371 N   0  0
   14.1238  -11.5089   -0.9080 O   0  0
   11.4419  -10.4796   -4.8320 C   0  0
   11.4898   -9.7902   -6.2102 C   0  0
   11.2851   -8.2688   -6.0931 C   0  0
   12.2761   -7.6394   -5.0970 C   0  0
   12.2327   -8.3376   -3.7231 C   0  0
   15.9657   -9.3163   -1.2732 C   0  0  1  0  0  0
   17.0916  -10.3216   -1.6213 C   0  0
   18.4010  -10.0267   -0.8615 C   0  0
   18.8716   -8.5596   -1.0631 C   0  0  1  0  0  0
   17.7462   -7.5426   -0.7400 C   0  0
   16.4513   -7.8687   -1.5082 C   0  0
   20.1366   -8.2241   -0.2325 C   0  0
   20.6287   -9.1036    0.5107 O   0  0
   11.3063  -10.3927   -1.6018 N   0  0
    7.5235  -12.0338   -1.3660 C   0  0
    8.3766  -12.6249   -2.2999 C   0  0
    9.6873  -12.1784   -2.4854 C   0  0
    7.9499  -10.9698   -0.5722 C   0  0
    9.2608  -10.5032   -0.7372 C   0  0
   10.1147  -11.1013   -1.6954 C   0  0
   11.1055   -9.4664   -0.5734 C   0  0
    9.8964   -9.4983   -0.0717 N   0  0
    6.2621  -12.5005   -1.2226 F   0  0
    7.9266  -13.6582   -3.0475 F   0  0
   12.1174   -8.5295   -0.0048 C   0  0
   12.9280   -8.8910    1.0822 C   0  0
   13.8594   -8.0525    1.5944 N   0  0
   13.9965   -6.8205    1.0497 C   0  0
   13.1897   -6.3713   -0.0050 C   0  0
   12.2358   -7.2396   -0.5260 C   0  0
   15.0032   -6.0839    1.6400 O   0  0
   15.3100   -4.7949    1.1213 C   0  0
   12.7678  -10.4388    1.8388 Cl  0  0
   20.6115   -7.0740   -0.3691 O   0  5
   12.4444  -11.6936   -2.7172 H   0  0
   13.4302  -10.0097   -4.2971 H   0  0
   14.4082   -8.8916   -2.6261 H   0  0
   11.6313  -11.5461   -4.9604 H   0  0
   10.4295  -10.3890   -4.4386 H   0  0
   12.4515   -9.9923   -6.6845 H   0  0
   10.7313  -10.2176   -6.8672 H   0  0
   11.3909   -7.8006   -7.0724 H   0  0
   10.2642   -8.0647   -5.7662 H   0  0
   13.2870   -7.7026   -5.5030 H   0  0
   12.0617   -6.5762   -4.9813 H   0  0
   11.2651   -8.1402   -3.2603 H   0  0
   12.9851   -7.8818   -3.0821 H   0  0
   15.7568   -9.4096   -0.2042 H   0  0
   16.7740  -11.3406   -1.3977 H   0  0
   17.2816  -10.2963   -2.6955 H   0  0
   18.2343  -10.2264    0.1991 H   0  0
   19.1717  -10.7235   -1.1955 H   0  0
   19.1957   -8.4232   -2.0962 H   0  0
   17.5284   -7.5461    0.3303 H   0  0
   18.0566   -6.5273   -0.9936 H   0  0
   16.6160   -7.7096   -2.5753 H   0  0
   15.6754   -7.1599   -1.2208 H   0  0
   10.3303  -12.6532   -3.2110 H   0  0
    7.2859  -10.5229    0.1527 H   0  0
   13.2919   -5.3819   -0.4233 H   0  0
   11.5969   -6.9088   -1.3309 H   0  0
   16.1400   -4.3696    1.6854 H   0  0
   15.6160   -4.8467    0.0752 H   0  0
   14.4636   -4.1129    1.2156 H   0  0
  1  2  1  0
  1  3  1  0
  1 19  1  0
  1 40  1  0
  2  4  1  0
  2  5  2  0
  3  6  1  0
  3 10  1  0
  3 41  1  0
  4 11  1  0
  4 42  1  0
  6  7  1  0
  6 43  1  0
  6 44  1  0
  7  8  1  0
  7 45  1  0
  7 46  1  0
  8  9  1  0
  8 47  1  0
  8 48  1  0
  9 10  1  0
  9 49  1  0
  9 50  1  0
 10 51  1  0
 10 52  1  0
 11 12  1  0
 11 16  1  0
 11 53  1  0
 12 13  1  0
 12 54  1  0
 12 55  1  0
 13 14  1  0
 13 56  1  0
 13 57  1  0
 14 15  1  0
 14 17  1  0
 14 58  1  0
 15 16  1  0
 15 59  1  0
 15 60  1  0
 16 61  1  0
 16 62  1  0
 17 18  2  0
 17 39  1  0
 19 25  1  0
 19 26  1  0
 20 21  2  0
 20 23  1  0
 20 28  1  0
 21 22  1  0
 21 29  1  0
 22 25  2  0
 22 63  1  0
 23 24  2  0
 23 64  1  0
 24 25  1  0
 24 27  1  0
 26 27  2  0
 26 30  1  0
 30 31  2  0
 30 35  1  0
 31 32  1  0
 31 38  1  0
 32 33  2  0
 33 34  1  0
 33 36  1  0
 34 35  2  0
 34 65  1  0
 35 66  1  0
 36 37  1  0
 37 67  1  0
 37 68  1  0
 37 69  1  0
M  CHG  1  39  -1
M  END
> <Name>
ligand_85

> <activity>
1

$$$$
ligand_86
  SciTegic10272118463D

 60 64  0  0  1  0            999 V2000
    6.0794    2.5874   -3.0933 C   0  0
    6.8428    1.8776   -1.9837 C   0  0
    7.6029    0.7586   -2.3284 C   0  0
    8.3247    0.0539   -1.3729 C   0  0
    8.3013    0.4556   -0.0463 C   0  0
    7.5519    1.5682    0.3109 C   0  0
    6.8230    2.2927   -0.6377 C   0  0
    5.8707    3.7059   -0.0207 S   0  0
    5.5755    4.6117   -1.1365 O   0  0
    6.5839    4.2198    1.1554 O   0  0
    4.3361    3.0178    0.5477 N   0  0
    3.4095    2.5358   -0.5086 C   0  0
    2.0040    2.2078    0.0400 C   0  0
    2.0158    1.2942    1.3008 C   0  0
    3.0376    1.8248    2.3480 C   0  0
    4.4240    2.1523    1.7533 C   0  0
    2.3410   -0.1695    0.9120 C   0  0
    3.3673   -0.5497    0.3439 O   0  0
    1.2876   -0.9266    1.3105 N   0  0
    1.2517   -2.3741    1.0624 C   0  0
    0.3083   -2.7759   -0.0630 C   0  0
   -0.8535   -3.4937    0.2201 C   0  0
   -1.7065   -3.8730   -0.8127 C   0  0
   -1.4069   -3.5489   -2.1453 C   0  0
   -0.2272   -2.8379   -2.4161 C   0  0
    0.6261   -2.4586   -1.3838 C   0  0
   -2.3283   -3.9574   -3.2591 C   0  0
   -3.3670   -4.5912   -2.9607 O   0  0
   -2.0116   -3.6436   -4.4298 O   0  5
    0.2647   -0.1589    1.8682 C   0  0
   -0.9793   -0.5617    2.3613 C   0  0
   -1.8493    0.3973    2.8838 C   0  0
   -1.4745    1.7431    2.9132 C   0  0
   -2.6638    3.0455    3.6281 Br  0  0
   -0.2279    2.1344    2.4192 C   0  0
    0.6407    1.1722    1.8952 C   0  0
    6.1064    2.0273   -4.0289 H   0  0
    5.0305    2.7161   -2.8326 H   0  0
    6.5172    3.5663   -3.2896 H   0  0
    7.6381    0.4216   -3.3545 H   0  0
    8.9038   -0.8101   -1.6641 H   0  0
    8.8581   -0.0912    0.7004 H   0  0
    7.5386    1.8665    1.3491 H   0  0
    3.3398    3.3023   -1.2808 H   0  0
    3.8634    1.6601   -0.9733 H   0  0
    1.5174    3.1517    0.2919 H   0  0
    1.3909    1.7753   -0.7533 H   0  0
    2.6427    2.7381    2.7965 H   0  0
    3.1490    1.1254    3.1789 H   0  0
    4.9517    1.2410    1.4708 H   0  0
    5.0436    2.6553    2.4961 H   0  0
    2.2439   -2.7520    0.8089 H   0  0
    0.9576   -2.8788    1.9835 H   0  0
   -1.1008   -3.7587    1.2377 H   0  0
   -2.6030   -4.4241   -0.5652 H   0  0
    0.0403   -2.5738   -3.4297 H   0  0
    1.5312   -1.9140   -1.6118 H   0  0
   -1.2810   -1.5979    2.3483 H   0  0
   -2.8135    0.0967    3.2667 H   0  0
    0.0521    3.1772    2.4462 H   0  0
  1  2  1  0
  1 37  1  0
  1 38  1  0
  1 39  1  0
  2  3  2  0
  2  7  1  0
  3  4  1  0
  3 40  1  0
  4  5  2  0
  4 41  1  0
  5  6  1  0
  5 42  1  0
  6  7  2  0
  6 43  1  0
  7  8  1  0
  8  9  2  0
  8 10  2  0
  8 11  1  0
 11 12  1  0
 11 16  1  0
 12 13  1  0
 12 44  1  0
 12 45  1  0
 13 14  1  0
 13 46  1  0
 13 47  1  0
 14 15  1  0
 14 17  1  0
 14 36  1  0
 15 16  1  0
 15 48  1  0
 15 49  1  0
 16 50  1  0
 16 51  1  0
 17 18  2  0
 17 19  1  0
 19 20  1  0
 19 30  1  0
 20 21  1  0
 20 52  1  0
 20 53  1  0
 21 22  2  0
 21 26  1  0
 22 23  1  0
 22 54  1  0
 23 24  2  0
 23 55  1  0
 24 25  1  0
 24 27  1  0
 25 26  2  0
 25 56  1  0
 26 57  1  0
 27 28  2  0
 27 29  1  0
 30 31  2  0
 30 36  1  0
 31 32  1  0
 31 58  1  0
 32 33  2  0
 32 59  1  0
 33 34  1  0
 33 35  1  0
 35 36  2  0
 35 60  1  0
M  CHG  1  29  -1
M  END
> <Name>
ligand_86

> <activity>
1

$$$$
ligand_87
  SciTegic10272118463D

 60 64  0  0  1  0            999 V2000
    1.0481    2.2405    0.7712 N   0  0
    0.6581    2.6587    2.0384 C   0  0
    0.9801    3.9016    2.2987 N   0  0
    1.6840    3.3301    0.1895 C   0  0
    1.6229    4.3430    1.1784 C   0  0
    2.1080    0.1869   -0.1814 C   0  0
    0.7873    0.9242    0.1495 C   0  0  2  0  0  0
    2.2860    3.5539   -1.0563 C   0  0
    2.1788    5.6044    0.9267 C   0  0
    2.7155   -0.4130    0.8655 N   0  0
    2.8317    4.8204   -1.2800 C   0  0
   -0.0783    1.8200    3.0255 C   0  0
    2.7813    5.8251   -0.3114 C   0  0
    7.5615   -3.4161    1.3009 C   0  0
    2.5536    0.2100   -1.3297 O   0  0
    6.2893   -2.6303    1.1590 C   0  0
    8.0655   -3.5178    2.4433 O   0  0
   -0.2297    1.0462   -1.0408 C   0  0
   -1.3746    2.1798    3.4037 C   0  0
    0.5245    0.6888    3.5829 C   0  0
    3.9112   -1.1523    0.8954 C   0  0
    5.6881   -2.0333    2.2771 C   0  0
    5.6747   -2.4821   -0.0935 C   0  0
    3.4231    5.0762   -2.4692 F   0  0
    3.3233    7.0361   -0.5749 F   0  0
    8.0537   -3.9301    0.2700 O   0  5
   -1.4699    0.2684    4.8679 C   0  0
    4.5086   -1.3056    2.1466 C   0  0
    4.4952   -1.7543   -0.2277 C   0  0
   -2.0724    1.4012    4.3233 C   0  0
   -0.1733   -0.0894    4.5025 C   0  0
   -2.3350   -0.6966    6.0074 Cl  0  0
   -0.6403   -0.3386   -1.6219 C   0  0
   -1.5090    1.8481   -0.6604 C   0  0
   -2.5193    1.9557   -1.8193 C   0  0
   -1.6490   -0.2284   -2.7821 C   0  0
   -2.8979    0.5747   -2.3806 C   0  0
    0.2845    0.3104    0.8969 H   0  0
    2.3359    2.7918   -1.8193 H   0  0
    2.1416    6.3883    1.6685 H   0  0
    2.2786   -0.2935    1.7660 H   0  0
    0.2587    1.5976   -1.8464 H   0  0
   -1.8424    3.0580    2.9817 H   0  0
    1.5335    0.4164    3.3120 H   0  0
    6.1291   -2.1286    3.2595 H   0  0
    6.1032   -2.9345   -0.9768 H   0  0
    4.0681   -0.8583    3.0264 H   0  0
    4.0496   -1.6860   -1.2077 H   0  0
   -3.0761    1.6766    4.6123 H   0  0
    0.2918   -0.9645    4.9326 H   0  0
    0.2325   -0.8856   -1.9786 H   0  0
   -1.0736   -0.9511   -0.8294 H   0  0
   -1.9931    1.3757    0.1961 H   0  0
   -1.2509    2.8580   -0.3405 H   0  0
   -3.4157    2.4791   -1.4844 H   0  0
   -2.0911    2.5659   -2.6162 H   0  0
   -1.1674    0.2515   -3.6356 H   0  0
   -1.9402   -1.2244   -3.1182 H   0  0
   -3.4622    0.0190   -1.6299 H   0  0
   -3.5613    0.6886   -3.2388 H   0  0
  1  2  1  0
  1  4  1  0
  1  7  1  0
  2  3  2  0
  2 12  1  0
  3  5  1  0
  4  5  1  0
  4  8  2  0
  5  9  2  0
  6  7  1  0
  6 10  1  0
  6 15  2  0
  7 18  1  0
  7 38  1  0
  8 11  1  0
  8 39  1  0
  9 13  1  0
  9 40  1  0
 10 21  1  0
 10 41  1  0
 11 13  2  0
 11 24  1  0
 12 19  2  0
 12 20  1  0
 13 25  1  0
 14 16  1  0
 14 17  2  0
 14 26  1  0
 16 22  2  0
 16 23  1  0
 18 33  1  0
 18 34  1  0
 18 42  1  0
 19 30  1  0
 19 43  1  0
 20 31  2  0
 20 44  1  0
 21 28  2  0
 21 29  1  0
 22 28  1  0
 22 45  1  0
 23 29  2  0
 23 46  1  0
 27 30  2  0
 27 31  1  0
 27 32  1  0
 28 47  1  0
 29 48  1  0
 30 49  1  0
 31 50  1  0
 33 36  1  0
 33 51  1  0
 33 52  1  0
 34 35  1  0
 34 53  1  0
 34 54  1  0
 35 37  1  0
 35 55  1  0
 35 56  1  0
 36 37  1  0
 36 57  1  0
 36 58  1  0
 37 59  1  0
 37 60  1  0
M  CHG  1  26  -1
M  END
> <Name>
ligand_87

> <activity>
1

$$$$
ligand_88
  SciTegic10272118463D

 73 77  0  0  1  0            999 V2000
    3.0397   -9.3860    1.3680 C   0  0  2  0  0  0
    1.9882   -9.4449    0.2351 C   0  0
    2.7281   -8.4105    2.5613 C   0  0
    1.1475   -8.4028    0.0945 N   0  0
    1.9673  -10.4223   -0.5147 O   0  0
    3.3361   -8.8811    3.9091 C   0  0
    2.9276   -7.9722    5.0866 C   0  0
    3.2695   -6.4945    4.8170 C   0  0
    2.6859   -6.0098    3.4765 C   0  0
    3.1016   -6.9272    2.3105 C   0  0
    0.1109   -8.2613   -0.9286 C   0  0  1  0  0  0
   -1.1377   -9.1434   -0.6843 C   0  0
   -2.1976   -8.9916   -1.7934 C   0  0
   -2.5912   -7.5056   -2.0167 C   0  0  1  0  0  0
   -1.3478   -6.6103   -2.2528 C   0  0
   -0.2969   -6.7863   -1.1389 C   0  0
   -3.5905   -7.3286   -3.1880 C   0  0
   -3.9162   -8.3282   -3.8681 O   0  0
    4.4540   -9.3249    0.9159 N   0  0
    7.9394  -11.2279    2.0472 C   0  0
    6.7857  -11.6417    2.7160 C   0  0
    5.5338  -11.0890    2.4349 C   0  0
    7.8877  -10.2408    1.0637 C   0  0
    6.6441   -9.6698    0.7620 C   0  0
    5.4813  -10.0926    1.4494 C   0  0
    5.0555   -8.5244   -0.0612 C   0  0
    6.3497   -8.7048   -0.1539 N   0  0
    9.1296  -11.7924    2.3542 F   0  0
    6.8774  -12.6033    3.6627 F   0  0
    4.3805   -7.5506   -0.9695 C   0  0
    4.4823   -6.1670   -0.7784 C   0  0
    3.8693   -5.2809   -1.6101 N   0  0
    3.1708   -5.7553   -2.6683 C   0  0
    3.0663   -7.1244   -2.9459 C   0  0
    3.6885   -8.0239   -2.0870 C   0  0
    5.2299   -5.6795    0.2802 O   0  0
    5.2985   -4.2738    0.5110 C   0  0
    2.5922   -4.7533   -3.4204 O   0  0
    1.8205   -5.1066   -4.5626 C   0  0
   -4.0299   -6.1728   -3.3822 O   0  5
    2.9217  -10.3859    1.7892 H   0  0
    1.6474   -8.4377    2.7193 H   0  0
    1.2188   -7.6430    0.7548 H   0  0
    3.0290   -9.9051    4.1256 H   0  0
    4.4242   -8.8940    3.8397 H   0  0
    1.8553   -8.0690    5.2636 H   0  0
    3.4175   -8.3059    6.0022 H   0  0
    2.9019   -5.8706    5.6325 H   0  0
    4.3536   -6.3713    4.8042 H   0  0
    1.5973   -5.9770    3.5427 H   0  0
    3.0099   -4.9873    3.2782 H   0  0
    4.1809   -6.8514    2.1849 H   0  0
    2.6520   -6.5607    1.3883 H   0  0
    0.5705   -8.5914   -1.8641 H   0  0
   -0.8483  -10.1924   -0.6075 H   0  0
   -1.5821   -8.8841    0.2780 H   0  0
   -1.7941   -9.4182   -2.7141 H   0  0
   -3.0763   -9.5834   -1.5310 H   0  0
   -3.1399   -7.1418   -1.1462 H   0  0
   -0.8868   -6.8578   -3.2109 H   0  0
   -1.6315   -5.5573   -2.3030 H   0  0
   -0.6922   -6.3823   -0.2053 H   0  0
    0.5820   -6.1850   -1.3746 H   0  0
    4.6547  -11.4249    2.9640 H   0  0
    8.7844   -9.9284    0.5493 H   0  0
    2.5167   -7.4972   -3.7963 H   0  0
    3.6219   -9.0845   -2.2832 H   0  0
    5.9175   -4.0818    1.3871 H   0  0
    5.7477   -3.7513   -0.3350 H   0  0
    4.3099   -3.8546    0.7050 H   0  0
    1.4341   -4.2008   -5.0295 H   0  0
    2.4231   -5.6297   -5.3067 H   0  0
    0.9656   -5.7275   -4.2927 H   0  0
  1  2  1  0
  1  3  1  0
  1 19  1  0
  1 41  1  0
  2  4  1  0
  2  5  2  0
  3  6  1  0
  3 10  1  0
  3 42  1  0
  4 11  1  0
  4 43  1  0
  6  7  1  0
  6 44  1  0
  6 45  1  0
  7  8  1  0
  7 46  1  0
  7 47  1  0
  8  9  1  0
  8 48  1  0
  8 49  1  0
  9 10  1  0
  9 50  1  0
  9 51  1  0
 10 52  1  0
 10 53  1  0
 11 12  1  0
 11 16  1  0
 11 54  1  0
 12 13  1  0
 12 55  1  0
 12 56  1  0
 13 14  1  0
 13 57  1  0
 13 58  1  0
 14 15  1  0
 14 17  1  0
 14 59  1  0
 15 16  1  0
 15 60  1  0
 15 61  1  0
 16 62  1  0
 16 63  1  0
 17 18  2  0
 17 40  1  0
 19 25  1  0
 19 26  1  0
 20 21  2  0
 20 23  1  0
 20 28  1  0
 21 22  1  0
 21 29  1  0
 22 25  2  0
 22 64  1  0
 23 24  2  0
 23 65  1  0
 24 25  1  0
 24 27  1  0
 26 27  2  0
 26 30  1  0
 30 31  2  0
 30 35  1  0
 31 32  1  0
 31 36  1  0
 32 33  2  0
 33 34  1  0
 33 38  1  0
 34 35  2  0
 34 66  1  0
 35 67  1  0
 36 37  1  0
 37 68  1  0
 37 69  1  0
 37 70  1  0
 38 39  1  0
 39 71  1  0
 39 72  1  0
 39 73  1  0
M  CHG  1  40  -1
M  END
> <Name>
ligand_88

> <activity>
1

$$$$
ligand_89
  SciTegic10272118463D

 60 64  0  0  1  0            999 V2000
    1.3549    0.3291    0.7220 C   0  0
    1.0681   -0.9625    1.1658 C   0  0
    2.0592   -1.9408    1.2722 C   0  0
    2.6514    0.6967    0.3664 C   0  0
    3.6647   -0.2660    0.4653 C   0  0
    3.3656   -1.5775    0.9137 C   0  0
    4.5894   -2.2433    0.8820 N   0  0
    5.5157   -1.3010    0.4415 C   0  0
    4.9895   -0.1319    0.1762 N   0  0
    4.8797   -3.6711    1.1857 C   0  0  1  0  0  0
    4.4692   -4.1891    2.5940 C   0  0
    4.5024   -4.5875   -0.0344 C   0  0
    3.8967   -3.3248    3.4594 N   0  0
    4.7231   -5.3559    2.8982 O   0  0
    5.4084   -5.8467   -0.1489 C   0  0
    5.0948   -6.6949   -1.3963 C   0  0
    3.6090   -7.0907   -1.4513 C   0  0
    2.6960   -5.8548   -1.3720 C   0  0
    3.0026   -4.9798   -0.1393 C   0  0
    0.3619    1.2432    0.6347 F   0  0
   -0.2025   -1.2796    1.5036 F   0  0
    6.9757   -1.5466    0.2557 C   0  0
    7.7820   -1.8841    1.3472 C   0  0
    9.1446   -2.1044    1.1649 C   0  0
    9.7010   -1.9785   -0.1068 C   0  0
    8.9052   -1.6310   -1.1969 C   0  0
    7.5423   -1.4113   -1.0149 C   0  0
   11.3900   -2.2515   -0.3327 Cl  0  0
    3.5800   -3.6091    4.7988 C   0  0
    4.2946   -2.8864    5.7542 C   0  0
    4.0909   -3.0969    7.1118 C   0  0
    3.1619   -4.0324    7.5398 C   0  0
    2.4289   -4.7439    6.5983 C   0  0
    2.6039   -4.5453    5.2210 C   0  0
    1.7284   -5.3165    4.2745 C   0  0
    1.3129   -4.7319    3.2488 O   0  0
    1.4369   -6.4942    4.5853 O   0  5
    1.8092   -2.9296    1.6223 H   0  0
    2.8653    1.6986    0.0250 H   0  0
    5.9626   -3.7390    1.2534 H   0  0
    4.7214   -4.0075   -0.9342 H   0  0
    3.7816   -2.3663    3.1665 H   0  0
    6.4587   -5.5524   -0.1727 H   0  0
    5.2926   -6.4799    0.7303 H   0  0
    5.3565   -6.1333   -2.2945 H   0  0
    5.7183   -7.5898   -1.4042 H   0  0
    3.4043   -7.6482   -2.3661 H   0  0
    3.3806   -7.7651   -0.6244 H   0  0
    2.8200   -5.2578   -2.2769 H   0  0
    1.6505   -6.1653   -1.3554 H   0  0
    2.6900   -5.5100    0.7618 H   0  0
    2.3819   -4.0906   -0.2069 H   0  0
    7.3538   -1.9769    2.3351 H   0  0
    9.7661   -2.3695    2.0077 H   0  0
    9.3416   -1.5307   -2.1799 H   0  0
    6.9267   -1.1398   -1.8607 H   0  0
    5.0331   -2.1590    5.4474 H   0  0
    4.6612   -2.5339    7.8358 H   0  0
    3.0031   -4.2005    8.5948 H   0  0
    1.6977   -5.4551    6.9573 H   0  0
  1  2  2  0
  1  4  1  0
  1 20  1  0
  2  3  1  0
  2 21  1  0
  3  6  2  0
  3 38  1  0
  4  5  2  0
  4 39  1  0
  5  6  1  0
  5  9  1  0
  6  7  1  0
  7  8  1  0
  7 10  1  0
  8  9  2  0
  8 22  1  0
 10 11  1  0
 10 12  1  0
 10 40  1  0
 11 13  1  0
 11 14  2  0
 12 15  1  0
 12 19  1  0
 12 41  1  0
 13 29  1  0
 13 42  1  0
 15 16  1  0
 15 43  1  0
 15 44  1  0
 16 17  1  0
 16 45  1  0
 16 46  1  0
 17 18  1  0
 17 47  1  0
 17 48  1  0
 18 19  1  0
 18 49  1  0
 18 50  1  0
 19 51  1  0
 19 52  1  0
 22 23  2  0
 22 27  1  0
 23 24  1  0
 23 53  1  0
 24 25  2  0
 24 54  1  0
 25 26  1  0
 25 28  1  0
 26 27  2  0
 26 55  1  0
 27 56  1  0
 29 30  2  0
 29 34  1  0
 30 31  1  0
 30 57  1  0
 31 32  2  0
 31 58  1  0
 32 33  1  0
 32 59  1  0
 33 34  2  0
 33 60  1  0
 34 35  1  0
 35 36  2  0
 35 37  1  0
M  CHG  1  37  -1
M  END
> <Name>
ligand_89

> <activity>
1

$$$$
ligand_90
  SciTegic10272118463D

 57 61  0  0  1  0            999 V2000
   -2.5256    7.1668    1.7604 O   0  5
   -1.3990    6.6761    2.0038 C   0  0
   -0.6930    6.9977    2.9875 O   0  0
   -0.8622    5.6389    1.0591 C   0  0
   -1.6060    5.2382   -0.0620 C   0  0
   -1.1096    4.2762   -0.9374 C   0  0
    0.1348    3.6929   -0.7000 C   0  0
    0.6874    2.6523   -1.6644 C   0  0
    0.7650    1.3016   -1.0914 N   0  0
    1.9534    0.7655   -0.7141 C   0  0
    3.0719    1.2766   -0.8060 O   0  0
    1.6484   -0.6343   -0.1267 C   0  0
    2.1331   -0.7281    1.3501 C   0  0
    3.6641   -0.8639    1.4984 C   0  0
    4.2280   -1.9321    0.6319 N   0  0
    3.8379   -1.8551   -0.7992 C   0  0
    2.3098   -1.7484   -0.9892 C   0  0
    5.9146   -2.3730    0.9648 S   0  0
    6.0488   -2.5369    2.4178 O   0  0
    6.2900   -3.4840    0.0830 O   0  0
    6.8916   -0.9224    0.5036 C   0  0
    7.2359   -0.0222    1.5171 C   0  0
    7.9806    1.1181    1.2280 C   0  0
    8.3907    2.2162    2.4944 Cl  0  0
    8.3953    1.3797   -0.0735 C   0  0
    8.0608    0.4938   -1.0912 C   0  0
    7.3141   -0.6517   -0.8125 C   0  0
    6.9430   -1.6857   -2.1491 Cl  0  0
    0.1495   -0.6978   -0.2115 C   0  0
   -0.7560   -1.6855    0.1763 C   0  0
   -2.1210   -1.4751   -0.0204 C   0  0
   -3.3645   -2.8164    0.5056 Br  0  0
   -2.5849   -0.2927   -0.5989 C   0  0
   -1.6781    0.6914   -0.9864 C   0  0
   -0.3145    0.4717   -0.7837 C   0  0
    0.8912    4.0910    0.4025 C   0  0
    0.3945    5.0529    1.2776 C   0  0
   -2.5755    5.6705   -0.2666 H   0  0
   -1.6965    3.9870   -1.7970 H   0  0
    1.6710    2.9966   -1.9891 H   0  0
    0.0648    2.6163   -2.5592 H   0  0
    1.7806    0.1242    1.9347 H   0  0
    1.6752   -1.6014    1.8177 H   0  0
    4.1675    0.0694    1.2444 H   0  0
    3.9238   -1.0853    2.5340 H   0  0
    4.3434   -0.9932   -1.2346 H   0  0
    4.2218   -2.7386   -1.3099 H   0  0
    1.8715   -2.7113   -0.7209 H   0  0
    2.0788   -1.6161   -2.0481 H   0  0
    6.9234   -0.1974    2.5363 H   0  0
    8.9725    2.2656   -0.2950 H   0  0
    8.3821    0.6994   -2.1020 H   0  0
   -0.4156   -2.6068    0.6258 H   0  0
   -3.6438   -0.1398   -0.7472 H   0  0
   -2.0433    1.6019   -1.4363 H   0  0
    1.8619    3.6529    0.5856 H   0  0
    0.9988    5.3385    2.1272 H   0  0
  1  2  1  0
  2  3  2  0
  2  4  1  0
  4  5  2  0
  4 37  1  0
  5  6  1  0
  5 38  1  0
  6  7  2  0
  6 39  1  0
  7  8  1  0
  7 36  1  0
  8  9  1  0
  8 40  1  0
  8 41  1  0
  9 10  1  0
  9 35  1  0
 10 11  2  0
 10 12  1  0
 12 13  1  0
 12 17  1  0
 12 29  1  0
 13 14  1  0
 13 42  1  0
 13 43  1  0
 14 15  1  0
 14 44  1  0
 14 45  1  0
 15 16  1  0
 15 18  1  0
 16 17  1  0
 16 46  1  0
 16 47  1  0
 17 48  1  0
 17 49  1  0
 18 19  2  0
 18 20  2  0
 18 21  1  0
 21 22  2  0
 21 27  1  0
 22 23  1  0
 22 50  1  0
 23 24  1  0
 23 25  2  0
 25 26  1  0
 25 51  1  0
 26 27  2  0
 26 52  1  0
 27 28  1  0
 29 30  2  0
 29 35  1  0
 30 31  1  0
 30 53  1  0
 31 32  1  0
 31 33  2  0
 33 34  1  0
 33 54  1  0
 34 35  2  0
 34 55  1  0
 36 37  2  0
 36 56  1  0
 37 57  1  0
M  CHG  1   1  -1
M  END
> <Name>
ligand_90

> <activity>
1

$$$$
ligand_91
  SciTegic10272118463D

 59 63  0  0  1  0            999 V2000
    4.3951   -8.8132    3.3776 O   0  5
    4.9247   -7.8819    2.7285 C   0  0
    6.1473   -7.8174    2.4640 O   0  0
    4.0389   -6.7736    2.2376 C   0  0
    2.6605   -6.7815    2.5035 C   0  0
    1.8368   -5.7534    2.0483 C   0  0
    2.3702   -4.7023    1.3007 C   0  0
    1.4931   -3.6891    0.8941 N   0  0
    1.2094   -3.3793   -0.3879 C   0  0
    1.6634   -3.9971   -1.3541 O   0  0
    0.2865   -2.1551   -0.6021 C   0  0  2  0  0  0
   -0.4622   -2.1093   -1.9820 C   0  0
   -1.3789   -3.3480   -2.2046 C   0  0
   -2.1264   -3.3085   -3.5520 C   0  0
   -2.9340   -2.0104   -3.7203 C   0  0
   -2.0473   -0.7695   -3.5218 C   0  0
   -1.2961   -0.8085   -2.1765 C   0  0
    1.0124   -0.8926   -0.3429 N   0  0
    0.6928    0.0839    0.5944 C   0  0
    1.4879    1.1244    0.5519 N   0  0
    2.3881    0.8442   -0.4350 C   0  0
    3.4627    1.6210   -0.8881 C   0  0
    4.2439    1.1229   -1.9306 C   0  0
    5.2863    1.8567   -2.3827 F   0  0
    3.9661   -0.1151   -2.5141 C   0  0
    4.7467   -0.5611   -3.5245 F   0  0
    2.9005   -0.9092   -2.0836 C   0  0
    2.1197   -0.4123   -1.0309 C   0  0
   -0.4474    0.0179    1.5514 C   0  0
   -0.5540   -1.0002    2.5058 C   0  0
   -1.6397   -1.0169    3.3831 C   0  0
   -2.5960   -0.0033    3.2892 C   0  0
   -3.9422   -0.0156    4.3680 Cl  0  0
   -2.5044    0.9993    2.3780 N   0  0
   -1.4418    1.0018    1.5332 C   0  0
    3.7534   -4.6600    1.0485 C   0  0
    4.5015   -3.3374    0.2152 Cl  0  0
    4.5683   -5.6962    1.5085 C   0  0
    2.2129   -7.5870    3.0689 H   0  0
    0.7796   -5.7870    2.2704 H   0  0
    1.0347   -3.1723    1.6283 H   0  0
   -0.4945   -2.2402    0.1523 H   0  0
    0.2902   -2.1205   -2.7731 H   0  0
   -0.8039   -4.2728   -2.1600 H   0  0
   -2.1076   -3.4106   -1.3947 H   0  0
   -1.4068   -3.3973   -4.3675 H   0  0
   -2.7885   -4.1712   -3.6359 H   0  0
   -3.3990   -1.9842   -4.7066 H   0  0
   -3.7508   -1.9935   -2.9970 H   0  0
   -1.3248   -0.7062   -4.3371 H   0  0
   -2.6544    0.1345   -3.5831 H   0  0
   -2.0141   -0.7114   -1.3604 H   0  0
   -0.6562    0.0726   -2.1210 H   0  0
    3.6825    2.5812   -0.4457 H   0  0
    2.7045   -1.8643   -2.5471 H   0  0
    0.2001   -1.7695    2.5744 H   0  0
   -1.7342   -1.7985    4.1227 H   0  0
   -1.4004    1.8156    0.8233 H   0  0
    5.6282   -5.6483    1.3003 H   0  0
  1  2  1  0
  2  3  2  0
  2  4  1  0
  4  5  2  0
  4 38  1  0
  5  6  1  0
  5 39  1  0
  6  7  2  0
  6 40  1  0
  7  8  1  0
  7 36  1  0
  8  9  1  0
  8 41  1  0
  9 10  2  0
  9 11  1  0
 11 12  1  0
 11 18  1  0
 11 42  1  0
 12 13  1  0
 12 17  1  0
 12 43  1  0
 13 14  1  0
 13 44  1  0
 13 45  1  0
 14 15  1  0
 14 46  1  0
 14 47  1  0
 15 16  1  0
 15 48  1  0
 15 49  1  0
 16 17  1  0
 16 50  1  0
 16 51  1  0
 17 52  1  0
 17 53  1  0
 18 19  1  0
 18 28  1  0
 19 20  2  0
 19 29  1  0
 20 21  1  0
 21 22  2  0
 21 28  1  0
 22 23  1  0
 22 54  1  0
 23 24  1  0
 23 25  2  0
 25 26  1  0
 25 27  1  0
 27 28  2  0
 27 55  1  0
 29 30  2  0
 29 35  1  0
 30 31  1  0
 30 56  1  0
 31 32  2  0
 31 57  1  0
 32 33  1  0
 32 34  1  0
 34 35  2  0
 35 58  1  0
 36 37  1  0
 36 38  2  0
 38 59  1  0
M  CHG  1   1  -1
M  END
> <Name>
ligand_91

> <activity>
1

$$$$
ligand_92
  SciTegic10272118463D

 68 72  0  0  1  0            999 V2000
    5.6622    3.9084    2.6335 F   0  0
    4.7204    3.0957    2.1041 C   0  0
    5.0325    1.7572    1.8679 C   0  0
    4.0959    0.8796    1.3220 C   0  0
    2.8237    1.3797    1.0111 C   0  0
    1.7557    0.7215    0.4743 N   0  0
    0.8103    1.6253    0.3790 C   0  0
   -0.5788    1.3357   -0.1757 C   0  0
   -0.7420   -0.0573   -0.4343 O   0  0
   -1.9425   -0.3908   -1.0097 C   0  0
   -3.0315   -0.7059   -0.1924 C   0  0
   -4.2571   -1.0570   -0.7589 C   0  0
   -4.3975   -1.0998   -2.1465 C   0  0
   -5.9132   -1.5339   -2.8478 Cl  0  0
   -3.3110   -0.7937   -2.9669 C   0  0
   -2.0829   -0.4420   -2.4031 C   0  0
   -0.7491   -0.0753   -3.4400 Cl  0  0
    1.2028    2.8824    0.8200 N   0  0
    0.3672    4.1059    0.8286 C   0  0  1  0  0  0
   -0.3773    4.2602    2.2009 C   0  0
   -1.5540    5.2737    2.1448 C   0  0
   -2.3402    5.3402    3.4688 C   0  0
   -1.4164    5.6304    4.6656 C   0  0
   -0.2646    4.6125    4.7498 C   0  0
    0.5327    4.5279    3.4325 C   0  0
    1.0926    5.3523    0.2582 C   0  0
    1.1600    6.4033    0.8957 O   0  0
    1.6454    5.2057   -0.9605 N   0  0
    2.4581    6.2019   -1.6639 C   0  0
    2.5359    5.9268   -3.1838 C   0  0
    3.4164    4.7025   -3.5168 C   0  0
    4.8280    4.8325   -2.9098 C   0  0
    4.7806    5.1343   -1.3988 C   0  0
    3.8896    6.3566   -1.0890 C   0  0
    2.5174    2.7420    1.2525 C   0  0
    3.4609    3.6200    1.8065 C   0  0
    6.0197    1.3938    2.1135 H   0  0
    4.3467   -0.1558    1.1437 H   0  0
   -1.3472    1.6612    0.5281 H   0  0
   -0.7310    1.8955   -1.1006 H   0  0
   -2.9246   -0.6767    0.8821 H   0  0
   -5.0954   -1.2967   -0.1212 H   0  0
   -3.4208   -0.8312   -4.0410 H   0  0
   -0.4157    3.9362    0.0889 H   0  0
   -0.8474    3.2928    2.3919 H   0  0
   -1.1850    6.2729    1.9131 H   0  0
   -2.2361    5.0103    1.3353 H   0  0
   -3.1154    6.1047    3.4033 H   0  0
   -2.8591    4.3943    3.6314 H   0  0
   -1.0057    6.6371    4.5725 H   0  0
   -1.9918    5.6202    5.5922 H   0  0
    0.4031    4.8734    5.5719 H   0  0
   -0.6701    3.6284    4.9899 H   0  0
    1.2758    3.7383    3.5347 H   0  0
    1.0890    5.4555    3.2975 H   0  0
    1.5553    4.3116   -1.4196 H   0  0
    1.9379    7.1552   -1.5404 H   0  0
    1.5346    5.7874   -3.5940 H   0  0
    2.9420    6.8052   -3.6881 H   0  0
    2.9410    3.7967   -3.1372 H   0  0
    3.4869    4.5768   -4.5979 H   0  0
    5.3980    3.9204   -3.0907 H   0  0
    5.3665    5.6330   -3.4195 H   0  0
    4.3987    4.2606   -0.8693 H   0  0
    5.7893    5.3013   -1.0192 H   0  0
    4.3515    7.2512   -1.5095 H   0  0
    3.8525    6.5237   -0.0116 H   0  0
    3.2411    4.6600    1.9961 H   0  0
  1  2  1  0
  2  3  2  0
  2 36  1  0
  3  4  1  0
  3 37  1  0
  4  5  2  0
  4 38  1  0
  5  6  1  0
  5 35  1  0
  6  7  2  0
  7  8  1  0
  7 18  1  0
  8  9  1  0
  8 39  1  0
  8 40  1  0
  9 10  1  0
 10 11  2  0
 10 16  1  0
 11 12  1  0
 11 41  1  0
 12 13  2  0
 12 42  1  0
 13 14  1  0
 13 15  1  0
 15 16  2  0
 15 43  1  0
 16 17  1  0
 18 19  1  0
 18 35  1  0
 19 20  1  0
 19 26  1  0
 19 44  1  0
 20 21  1  0
 20 25  1  0
 20 45  1  0
 21 22  1  0
 21 46  1  0
 21 47  1  0
 22 23  1  0
 22 48  1  0
 22 49  1  0
 23 24  1  0
 23 50  1  0
 23 51  1  0
 24 25  1  0
 24 52  1  0
 24 53  1  0
 25 54  1  0
 25 55  1  0
 26 27  2  0
 26 28  1  0
 28 29  1  0
 28 56  1  0
 29 30  1  0
 29 34  1  0
 29 57  1  0
 30 31  1  0
 30 58  1  0
 30 59  1  0
 31 32  1  0
 31 60  1  0
 31 61  1  0
 32 33  1  0
 32 62  1  0
 32 63  1  0
 33 34  1  0
 33 64  1  0
 33 65  1  0
 34 66  1  0
 34 67  1  0
 35 36  2  0
 36 68  1  0
M  END
> <Name>
ligand_92

> <activity>
1

$$$$
ligand_93
  SciTegic10272118463D

 68 72  0  0  1  0            999 V2000
   -1.1165  -19.6255   -3.5956 C   0  0
   -1.5127  -20.8795   -3.0988 C   0  0
   -1.1155  -21.2966   -1.8239 C   0  0
   -0.3229  -18.7567   -2.8474 C   0  0
    0.0795  -19.1619   -1.5695 C   0  0
   -0.3173  -20.4248   -1.0715 C   0  0
    0.2497  -20.4953    0.1928 N   0  0
    0.9222  -19.2899    0.3742 C   0  0
    0.8448  -18.4904   -0.6605 N   0  0
    0.1203  -21.6353    1.1273 C   0  0  1  0  0  0
    1.4998  -22.2263    1.5115 C   0  0
    1.9284  -22.0716    2.7790 N   0  0
    2.1694  -22.7937    0.6476 O   0  0
   -2.2988  -21.7733   -3.8005 O   0  0
   -2.7485  -21.4339   -5.1079 C   0  0
   -0.8783  -21.3374    2.3058 C   0  0
    3.1930  -22.5604    3.3317 C   0  0
    1.6833  -18.8986    1.5901 C   0  0
    1.0154  -18.4050    2.7129 C   0  0
    1.7389  -18.0349    3.8433 C   0  0
    3.1282  -18.1490    3.8426 C   0  0
    3.8000  -18.6286    2.7194 C   0  0
    3.0766  -19.0018    1.5901 C   0  0
    3.5094  -21.9219    4.7041 C   0  0
    4.8594  -22.3896    5.2825 C   0  0
    4.9453  -23.9248    5.3608 C   0  0
    4.6453  -24.5787    3.9994 C   0  0
    3.2975  -24.1058    3.4181 C   0  0
   -2.1612  -20.5763    1.8608 C   0  0
   -3.1294  -20.2998    3.0280 C   0  0
   -3.5023  -21.5872    3.7829 C   0  0
   -2.2492  -22.3519    4.2430 C   0  0
   -1.2867  -22.6298    3.0718 C   0  0
    4.0244  -17.7009    5.2474 Cl  0  0
   -1.4205  -19.3004   -4.5787 H   0  0
   -1.4228  -22.2604   -1.4463 H   0  0
   -0.0294  -17.7963   -3.2452 H   0  0
   -0.3429  -22.4378    0.5521 H   0  0
    1.3251  -21.5860    3.4259 H   0  0
   -3.3501  -22.2517   -5.5042 H   0  0
   -3.3747  -20.5405   -5.0969 H   0  0
   -1.9124  -21.2794   -5.7917 H   0  0
   -0.3728  -20.6927    3.0244 H   0  0
    3.9628  -22.2120    2.6381 H   0  0
   -0.0608  -18.3080    2.7102 H   0  0
    1.2236  -17.6592    4.7151 H   0  0
    4.8767  -18.7153    2.7237 H   0  0
    3.5961  -19.3763    0.7196 H   0  0
    3.5131  -20.8358    4.6204 H   0  0
    2.7127  -22.1634    5.4098 H   0  0
    5.6710  -22.0116    4.6587 H   0  0
    5.0105  -21.9569    6.2722 H   0  0
    5.9334  -24.2266    5.7107 H   0  0
    4.2344  -24.2906    6.1034 H   0  0
    5.4455  -24.3373    3.2979 H   0  0
    4.6473  -25.6648    4.0995 H   0  0
    2.4832  -24.4892    4.0351 H   0  0
    3.1603  -24.5519    2.4325 H   0  0
   -1.9043  -19.6213    1.4017 H   0  0
   -2.6780  -21.1522    1.0912 H   0  0
   -2.6674  -19.5944    3.7207 H   0  0
   -4.0316  -19.8128    2.6557 H   0  0
   -4.1316  -21.3488    4.6413 H   0  0
   -4.1013  -22.2281    3.1340 H   0  0
   -1.7304  -21.7731    5.0088 H   0  0
   -2.5403  -23.2904    4.7165 H   0  0
   -1.7615  -23.3270    2.3794 H   0  0
   -0.4120  -23.1503    3.4611 H   0  0
  1  2  2  0
  1  4  1  0
  1 35  1  0
  2  3  1  0
  2 14  1  0
  3  6  2  0
  3 36  1  0
  4  5  2  0
  4 37  1  0
  5  6  1  0
  5  9  1  0
  6  7  1  0
  7  8  1  0
  7 10  1  0
  8  9  2  0
  8 18  1  0
 10 11  1  0
 10 16  1  0
 10 38  1  0
 11 12  1  0
 11 13  2  0
 12 17  1  0
 12 39  1  0
 14 15  1  0
 15 40  1  0
 15 41  1  0
 15 42  1  0
 16 29  1  0
 16 33  1  0
 16 43  1  0
 17 24  1  0
 17 28  1  0
 17 44  1  0
 18 19  2  0
 18 23  1  0
 19 20  1  0
 19 45  1  0
 20 21  2  0
 20 46  1  0
 21 22  1  0
 21 34  1  0
 22 23  2  0
 22 47  1  0
 23 48  1  0
 24 25  1  0
 24 49  1  0
 24 50  1  0
 25 26  1  0
 25 51  1  0
 25 52  1  0
 26 27  1  0
 26 53  1  0
 26 54  1  0
 27 28  1  0
 27 55  1  0
 27 56  1  0
 28 57  1  0
 28 58  1  0
 29 30  1  0
 29 59  1  0
 29 60  1  0
 30 31  1  0
 30 61  1  0
 30 62  1  0
 31 32  1  0
 31 63  1  0
 31 64  1  0
 32 33  1  0
 32 65  1  0
 32 66  1  0
 33 67  1  0
 33 68  1  0
M  END
> <Name>
ligand_93

> <activity>
1

$$$$
ligand_94
  SciTegic10272118463D

 67 70  0  0  1  0            999 V2000
   20.7326   -1.8462    0.1958 C   0  0
   14.7303   -6.7897    1.2634 C   0  0
   19.1977   -7.6245    0.4489 C   0  0
   19.5626   -5.3211   -0.1924 C   0  0
   15.3698   -3.6873   -0.2823 C   0  0
   14.3105   -7.1033   -0.1893 C   0  0
   14.3262   -5.1831   -2.5970 O   0  0
   19.8622   -6.4137    0.6275 C   0  0
   17.9485   -6.6689   -1.3887 C   0  0
   12.0034   -6.3807    0.4012 C   0  0
   18.2683   -2.3291   -0.0379 C   0  0
   11.7338   -2.5004    0.0276 C   0  0
   11.9640   -4.4612   -2.0322 O   0  0
   17.3735   -2.9132    0.8151 N   0  0
   13.9906   -3.6324   -0.4900 C   0  0
   17.9530   -1.5256   -0.9197 O   0  0
   21.5433   -3.9442    0.1828 N   0  0
   20.2358   -4.0023    0.0230 C   0  0
   18.2368   -7.7507   -0.5554 C   0  0
   13.6122   -6.9012    2.1451 O   0  0
   17.5079   -9.0699   -0.7345 C   0  0
   12.5213   -6.0414    1.8126 C   0  0
   13.2959   -4.8907   -1.5924 S   0  0
   13.2421   -2.6389    0.1783 C   0  0
   15.2600   -1.8042    1.2331 C   0  0
   21.8460   -2.6394    0.2761 N   0  0
   23.2380   -2.2049    0.4365 C   0  0
   18.6111   -5.4587   -1.2077 C   0  0
   13.8873   -1.7315    1.0266 C   0  0
   15.9979   -2.7875    0.5781 C   0  0
   13.0945   -6.3567   -0.6019 N   0  0
   19.6557   -2.7098    0.0821 C   0  0
   23.8249   -2.7444    1.7569 C   0  0
   24.0785   -2.6169   -0.7893 C   0  0
   17.7353   -3.7357    1.9783 C   0  0
   20.8032   -0.7694    0.2467 H   0  0
   15.5048   -7.4843    1.5893 H   0  0
   15.1446   -5.7864    1.3519 H   0  0
   19.4270   -8.4605    1.0938 H   0  0
   15.9584   -4.4488   -0.7727 H   0  0
   15.1155   -6.8970   -0.8931 H   0  0
   14.0851   -8.1654   -0.2900 H   0  0
   20.5973   -6.3204    1.4139 H   0  0
   17.2102   -6.7583   -2.1726 H   0  0
   11.5735   -7.3828    0.3896 H   0  0
   11.2079   -5.7065    0.0867 H   0  0
   11.2309   -3.4427    0.2390 H   0  0
   11.3195   -1.7603    0.7133 H   0  0
   11.4793   -2.1807   -0.9831 H   0  0
   16.7811   -9.0267   -1.5468 H   0  0
   18.2168   -9.8673   -0.9597 H   0  0
   16.9736   -9.3343    0.1786 H   0  0
   12.8517   -5.0034    1.8723 H   0  0
   11.7292   -6.1734    2.5498 H   0  0
   15.7434   -1.1069    1.9022 H   0  0
   23.2318   -1.1147    0.4906 H   0  0
   18.3760   -4.6264   -1.8553 H   0  0
   13.3239   -0.9666    1.5412 H   0  0
   24.8351   -2.3671    1.9189 H   0  0
   23.2224   -2.4388    2.6133 H   0  0
   23.8782   -3.8341    1.7611 H   0  0
   25.0971   -2.2357   -0.7112 H   0  0
   24.1419   -3.7013   -0.8909 H   0  0
   23.6532   -2.2220   -1.7129 H   0  0
   18.7749   -3.6167    2.2837 H   0  0
   17.1211   -3.4647    2.8379 H   0  0
   17.5596   -4.7903    1.7638 H   0  0
  1 26  1  0
  1 32  2  0
  1 36  1  0
  2  6  1  0
  2 20  1  0
  2 37  1  0
  2 38  1  0
  3  8  2  0
  3 19  1  0
  3 39  1  0
  4 18  1  0
  4  8  1  0
  4 28  2  0
  5 15  2  0
  5 30  1  0
  5 40  1  0
  6 31  1  0
  6 41  1  0
  6 42  1  0
  7 23  2  0
  8 43  1  0
  9 28  1  0
  9 19  2  0
  9 44  1  0
 10 22  1  0
 10 31  1  0
 10 45  1  0
 10 46  1  0
 11 16  2  0
 11 14  1  0
 11 32  1  0
 12 24  1  0
 12 47  1  0
 12 48  1  0
 12 49  1  0
 13 23  2  0
 14 30  1  0
 14 35  1  0
 15 24  1  0
 15 23  1  0
 17 18  2  0
 17 26  1  0
 18 32  1  0
 19 21  1  0
 20 22  1  0
 21 50  1  0
 21 51  1  0
 21 52  1  0
 22 53  1  0
 22 54  1  0
 23 31  1  0
 24 29  2  0
 25 29  1  0
 25 30  2  0
 25 55  1  0
 26 27  1  0
 27 33  1  0
 27 34  1  0
 27 56  1  0
 28 57  1  0
 29 58  1  0
 33 59  1  0
 33 60  1  0
 33 61  1  0
 34 62  1  0
 34 63  1  0
 34 64  1  0
 35 65  1  0
 35 66  1  0
 35 67  1  0
M  END
> <Name>
ligand_94

> <activity>
1

$$$$
ligand_95
  SciTegic10272118463D

 62 61  0  0  1  0            999 V2000
    5.4261   -0.0933   -1.6581 C   0  0
    6.5107   -0.5819   -2.4199 O   0  0
    5.6622   -0.3750   -0.1624 C   0  0
    4.6539    0.2307    0.7086 N   0  0
    3.3934   -0.2132    0.8586 C   0  0
    2.4975    0.5770    1.8227 C   0  0
    2.9532   -1.2064    0.2783 O   0  0
    1.1052    0.8967    1.2367 C   0  0
    0.2238    1.7006    2.2076 C   0  0
   -1.1433    2.0338    1.6407 C   0  0
   -2.3094    1.5886    2.1400 C   0  0
   -3.6758    1.9225    1.5744 C   0  0
   -4.4284    0.7046    1.0757 C   0  0
   -4.8062    0.5051   -0.1990 C   0  0
   -5.5590   -0.7131   -0.6959 C   0  0
   -6.9265   -0.3770   -1.2653 C   0  0
   -8.1270   -0.6263   -0.7069 C   0  0
   -8.3993   -1.2704    0.6416 C   0  0
   -8.9727   -2.6687    0.5275 C   0  0
  -10.1957   -3.0328    0.9505 C   0  0
  -10.7702   -4.4319    0.8343 C   0  0
  -11.0521   -5.0890    2.1961 C   0  0
  -11.6479   -6.5025    2.0680 C   0  0
  -11.9296   -7.1603    3.4302 C   0  0
  -12.5231   -8.5699    3.3019 C   0  0
    4.5083   -0.5695   -2.0052 H   0  0
    5.3250    0.9774   -1.8402 H   0  0
    6.3366   -0.4094   -3.3485 H   0  0
    5.7087   -1.4512    0.0185 H   0  0
    6.6286    0.0338    0.1363 H   0  0
    4.9386    1.0531    1.2201 H   0  0
    2.3871   -0.0172    2.7306 H   0  0
    2.9916    1.5043    2.1189 H   0  0
    1.2182    1.4578    0.3070 H   0  0
    0.5901   -0.0302    0.9759 H   0  0
    0.1075    1.1478    3.1416 H   0  0
    0.7157    2.6399    2.4634 H   0  0
   -1.1487    2.6796    0.7741 H   0  0
   -2.3037    0.9437    3.0073 H   0  0
   -4.2685    2.4109    2.3483 H   0  0
   -3.5708    2.6462    0.7638 H   0  0
   -4.6660   -0.0403    1.8220 H   0  0
   -4.5693    1.2496   -0.9460 H   0  0
   -4.9684   -1.2000   -1.4723 H   0  0
   -5.6454   -1.4427    0.1089 H   0  0
   -6.9094    0.1073   -2.2312 H   0  0
   -9.0106   -0.3358   -1.2571 H   0  0
   -7.4974   -1.3230    1.2497 H   0  0
   -9.0870   -0.6231    1.1878 H   0  0
   -8.3278   -3.4048    0.0686 H   0  0
  -10.8406   -2.2958    1.4078 H   0  0
  -11.6936   -4.3655    0.2574 H   0  0
  -10.0894   -5.0601    0.2570 H   0  0
  -10.1264   -5.1371    2.7721 H   0  0
  -11.7354   -4.4590    2.7682 H   0  0
  -12.5732   -6.4544    1.4914 H   0  0
  -10.9644   -7.1328    1.4966 H   0  0
  -11.0067   -7.2132    4.0096 H   0  0
  -12.6152   -6.5354    4.0043 H   0  0
  -12.7096   -9.0046    4.2843 H   0  0
  -13.4709   -8.5530    2.7626 H   0  0
  -11.8459   -9.2376    2.7681 H   0  0
  1  2  1  0
  1  3  1  0
  1 26  1  0
  1 27  1  0
  2 28  1  0
  3  4  1  0
  3 29  1  0
  3 30  1  0
  4  5  1  0
  4 31  1  0
  5  6  1  0
  5  7  2  0
  6  8  1  0
  6 32  1  0
  6 33  1  0
  8  9  1  0
  8 34  1  0
  8 35  1  0
  9 10  1  0
  9 36  1  0
  9 37  1  0
 10 11  2  0
 10 38  1  0
 11 12  1  0
 11 39  1  0
 12 13  1  0
 12 40  1  0
 12 41  1  0
 13 14  2  0
 13 42  1  0
 14 15  1  0
 14 43  1  0
 15 16  1  0
 15 44  1  0
 15 45  1  0
 16 17  2  0
 16 46  1  0
 17 18  1  0
 17 47  1  0
 18 19  1  0
 18 48  1  0
 18 49  1  0
 19 20  2  0
 19 50  1  0
 20 21  1  0
 20 51  1  0
 21 22  1  0
 21 52  1  0
 21 53  1  0
 22 23  1  0
 22 54  1  0
 22 55  1  0
 23 24  1  0
 23 56  1  0
 23 57  1  0
 24 25  1  0
 24 58  1  0
 24 59  1  0
 25 60  1  0
 25 61  1  0
 25 62  1  0
M  END
> <Name>
ligand_95

> <activity>
1

$$$$
ligand_96
  SciTegic10272118463D

 56 60  0  0  1  0            999 V2000
    1.2840    2.1467    1.3556 O   0  0
    0.6122    1.3127    0.7458 C   0  0
   -0.4967    1.6092    0.0432 N   0  0
   -1.1032    2.9344   -0.0640 C   0  0
   -0.3758    3.8608   -1.0494 C   0  0
   -1.4310    4.8810   -1.5042 C   0  0
   -2.8009    4.2857   -1.1351 C   0  0
   -2.5232    2.8647   -0.6330 C   0  0
    0.9978   -0.0754    0.6634 N   0  0
    2.3033   -0.5440    0.7768 C   0  0
    3.5580    0.3010    1.0073 C   0  0
    4.7416   -0.5701    1.2455 N   0  0
    4.8318   -1.7885    0.3997 C   0  0
    3.6225   -2.7290    0.6091 C   0  0
    2.3313   -1.9227    0.5742 C   0  0
    1.0130   -2.3039    0.3570 C   0  0
    0.1871   -1.1922    0.4342 C   0  0
   -1.3019   -1.2045    0.3088 C   0  0
   -1.8963   -1.6879   -0.8542 C   0  0
   -3.2797   -1.6967   -0.9828 C   0  0
   -4.0776   -1.2299    0.0537 C   0  0
   -3.4920   -0.7593    1.2216 C   0  0
   -2.1089   -0.7513    1.3511 C   0  0
    6.2600    0.2540    1.6440 S   0  0
    5.9768    1.3658    2.5591 O   0  0
    7.2853   -0.7522    1.9441 O   0  0
    6.6837    0.9829    0.0433 C   0  0
    6.3386    2.2616   -0.3785 C   0  0
    6.7891    2.5403   -1.6733 C   0  0
    7.4742    1.4741   -2.2411 C   0  0
    7.5655    0.1105   -1.1723 S   0  0
   -0.9748    0.8593   -0.4354 H   0  0
   -1.1529    3.4258    0.9115 H   0  0
    0.4998    4.3350   -0.6037 H   0  0
   -0.0278    3.2933   -1.9150 H   0  0
   -1.2876    5.8362   -0.9966 H   0  0
   -1.3508    5.0717   -2.5753 H   0  0
   -3.2539    4.8754   -0.3364 H   0  0
   -3.4973    4.2923   -1.9746 H   0  0
   -2.5655    2.1678   -1.4730 H   0  0
   -3.2554    2.5292    0.1029 H   0  0
    3.7599    0.8989    0.1183 H   0  0
    3.4704    0.9871    1.8498 H   0  0
    4.9091   -1.4631   -0.6387 H   0  0
    5.7551   -2.3180    0.6359 H   0  0
    3.6283   -3.5179   -0.1433 H   0  0
    3.7147   -3.2304    1.5732 H   0  0
    0.6813   -3.3159    0.1763 H   0  0
   -1.2849   -2.0514   -1.6677 H   0  0
   -3.7351   -2.0669   -1.8896 H   0  0
   -5.1531   -1.2364   -0.0470 H   0  0
   -4.1117   -0.4000    2.0299 H   0  0
   -1.6624   -0.3830    2.2636 H   0  0
    5.7825    2.9624    0.2273 H   0  0
    6.6214    3.4811   -2.1766 H   0  0
    7.9214    1.4262   -3.2230 H   0  0
  1  2  2  0
  2  3  1  0
  2  9  1  0
  3  4  1  0
  3 32  1  0
  4  5  1  0
  4  8  1  0
  4 33  1  0
  5  6  1  0
  5 34  1  0
  5 35  1  0
  6  7  1  0
  6 36  1  0
  6 37  1  0
  7  8  1  0
  7 38  1  0
  7 39  1  0
  8 40  1  0
  8 41  1  0
  9 10  1  0
  9 17  1  0
 10 11  1  0
 10 15  2  0
 11 12  1  0
 11 42  1  0
 11 43  1  0
 12 13  1  0
 12 24  1  0
 13 14  1  0
 13 44  1  0
 13 45  1  0
 14 15  1  0
 14 46  1  0
 14 47  1  0
 15 16  1  0
 16 17  2  0
 16 48  1  0
 17 18  1  0
 18 19  2  0
 18 23  1  0
 19 20  1  0
 19 49  1  0
 20 21  2  0
 20 50  1  0
 21 22  1  0
 21 51  1  0
 22 23  2  0
 22 52  1  0
 23 53  1  0
 24 25  2  0
 24 26  2  0
 24 27  1  0
 27 28  2  0
 27 31  1  0
 28 29  1  0
 28 54  1  0
 29 30  2  0
 29 55  1  0
 30 31  1  0
 30 56  1  0
M  END
> <Name>
ligand_96

> <activity>
1

$$$$
ligand_97
  SciTegic10272118463D

 71 75  0  0  1  0            999 V2000
   20.3187   -1.8821    0.0194 C   0  0
   14.7448   -6.9317    1.6482 C   0  0
   17.6037   -6.9424   -0.8060 C   0  0
   18.8906   -4.9769   -1.3706 C   0  0
   14.7499   -4.0021   -0.4240 C   0  0
   14.0669   -7.4452    0.3589 C   0  0
   13.2541   -5.8325   -2.1581 O   0  0
   18.3372   -5.8279   -0.4100 C   0  0
   17.9788   -6.3654   -3.1254 C   0  0
   11.8695   -6.9259    1.4025 C   0  0
   17.9166   -2.4648    0.5046 C   0  0
   11.2873   -3.1689    1.0100 C   0  0
   11.0850   -5.1853   -1.0202 O   0  0
   16.8769   -2.9727   -0.1902 N   0  0
   13.3807   -4.1084   -0.1641 C   0  0
   17.8400   -1.8746    1.5831 O   0  0
   20.8878   -3.5920   -1.3260 N   0  0
   19.6380   -3.7582   -0.9410 C   0  0
   23.6425   -2.7000    0.0396 C   0  0
   17.4178   -7.2074   -2.1636 C   0  0
   13.8729   -7.0884    2.7682 O   0  0
   16.5939   -8.4057   -2.5982 C   0  0
   12.6297   -6.3992    2.6360 C   0  0
   12.5149   -5.5021   -0.9331 S   0  0
   12.7732   -3.1532    0.6780 C   0  0
   14.9066   -2.0418    0.9784 C   0  0
   21.2974   -2.4598   -0.7420 N   0  0
   22.6734   -2.0151   -0.9135 C   0  0
   18.7191   -5.2545   -2.7295 C   0  0
   13.5440   -2.1295    1.2377 C   0  0
   15.5152   -2.9878    0.1480 C   0  0
   12.7064   -6.8794    0.1792 N   0  0
   19.1904   -2.6735   -0.1389 C   0  0
   24.2714   -3.8908   -0.3279 C   0  0
   25.1546   -4.5281    0.5396 C   0  0
   25.4158   -3.9745    1.7897 C   0  0
   24.7927   -2.7811    2.1735 C   0  0
   23.9065   -2.1493    1.2944 C   0  0
   25.0584   -2.1570    3.5428 C   0  0
   25.8416   -2.9184    4.3096 F   0  0
   25.6530   -0.9746    3.3824 F   0  0
   23.9048   -1.9701    4.1854 F   0  0
   20.5029   -0.9752    0.5769 H   0  0
   15.6613   -7.4887    1.8420 H   0  0
   15.0194   -5.8804    1.5609 H   0  0
   17.1774   -7.5938   -0.0579 H   0  0
   15.2301   -4.7284   -1.0652 H   0  0
   14.6657   -7.2259   -0.5245 H   0  0
   13.9639   -8.5301    0.3962 H   0  0
   18.4672   -5.6218    0.6428 H   0  0
   17.8380   -6.5666   -4.1775 H   0  0
   11.5820   -7.9662    1.5577 H   0  0
   10.9426   -6.3811    1.2292 H   0  0
   10.9712   -4.1450    1.3715 H   0  0
   11.0345   -2.4476    1.7883 H   0  0
   10.6990   -2.9125    0.1287 H   0  0
   17.1112   -3.4760   -1.0334 H   0  0
   15.5803   -8.0910   -2.8492 H   0  0
   17.0315   -8.8823   -3.4761 H   0  0
   16.5306   -9.1563   -1.8093 H   0  0
   12.8242   -5.3292    2.5549 H   0  0
   12.0410   -6.5548    3.5401 H   0  0
   15.4663   -1.2284    1.4146 H   0  0
   22.9725   -2.1912   -1.9488 H   0  0
   22.7078   -0.9334   -0.7739 H   0  0
   19.1441   -4.6012   -3.4781 H   0  0
   13.0880   -1.3878    1.8774 H   0  0
   24.0710   -4.3310   -1.2942 H   0  0
   25.6339   -5.4498    0.2440 H   0  0
   26.1028   -4.4796    2.4530 H   0  0
   23.4213   -1.2296    1.5899 H   0  0
  1 27  1  0
  1 33  2  0
  1 43  1  0
  2  6  1  0
  2 21  1  0
  2 44  1  0
  2 45  1  0
  3  8  2  0
  3 20  1  0
  3 46  1  0
  4 18  1  0
  4  8  1  0
  4 29  2  0
  5 15  2  0
  5 31  1  0
  5 47  1  0
  6 32  1  0
  6 48  1  0
  6 49  1  0
  7 24  2  0
  8 50  1  0
  9 29  1  0
  9 20  2  0
  9 51  1  0
 10 23  1  0
 10 32  1  0
 10 52  1  0
 10 53  1  0
 11 16  2  0
 11 14  1  0
 11 33  1  0
 12 25  1  0
 12 54  1  0
 12 55  1  0
 12 56  1  0
 13 24  2  0
 14 31  1  0
 14 57  1  0
 15 25  1  0
 15 24  1  0
 17 18  2  0
 17 27  1  0
 18 33  1  0
 19 28  1  0
 19 34  1  0
 19 38  2  0
 20 22  1  0
 21 23  1  0
 22 58  1  0
 22 59  1  0
 22 60  1  0
 23 61  1  0
 23 62  1  0
 24 32  1  0
 25 30  2  0
 26 30  1  0
 26 31  2  0
 26 63  1  0
 27 28  1  0
 28 64  1  0
 28 65  1  0
 29 66  1  0
 30 67  1  0
 34 35  2  0
 34 68  1  0
 35 36  1  0
 35 69  1  0
 36 37  2  0
 36 70  1  0
 37 38  1  0
 37 39  1  0
 38 71  1  0
 39 40  1  0
 39 41  1  0
 39 42  1  0
M  END
> <Name>
ligand_97

> <activity>
1

$$$$
ligand_98
  SciTegic10272118463D

 60 64  0  0  1  0            999 V2000
   -4.0101    5.4517    3.1170 O   0  5
   -2.9510    4.8772    3.4601 C   0  0
   -2.6716    4.5717    4.6425 O   0  0
   -1.9558    4.5336    2.3886 C   0  0
   -2.2112    4.8520    1.0455 C   0  0
   -1.2898    4.5328    0.0518 C   0  0
   -0.1023    3.8816    0.3849 C   0  0
    0.9148    3.5459   -0.6972 C   0  0
    1.0518    2.1047   -0.9484 N   0  0
    2.1314    1.4132   -0.5031 C   0  0
    3.1051    1.8539    0.1121 O   0  0
    1.9161   -0.0655   -0.9086 C   0  0
    1.8982   -0.9844    0.3482 C   0  0
    3.2927   -1.2213    0.9664 C   0  0
    4.2992   -1.6441   -0.0431 N   0  0
    4.3923   -0.7766   -1.2452 C   0  0
    3.0186   -0.5279   -1.9049 C   0  0
    5.8382   -2.2640    0.5935 S   0  0
    5.5158   -3.1770    1.6974 O   0  0
    6.6211   -2.7644   -0.5402 O   0  0
    6.6674   -0.8270    1.3387 C   0  0
    6.1821   -0.4464    2.5933 C   0  0
    6.7031    0.6392    3.2819 C   0  0
    7.7338    1.3781    2.7291 C   0  0
    8.2324    1.0175    1.4859 C   0  0
    7.7227   -0.0749    0.7678 C   0  0
    8.3485   -0.3826   -0.6023 C   0  0
    9.2425    0.5357   -0.9770 F   0  0
    8.9898   -1.5500   -0.5564 F   0  0
    7.4178   -0.4138   -1.5538 F   0  0
    0.5670   -0.0237   -1.5691 C   0  0
   -0.2144   -1.0301   -2.1367 C   0  0
   -1.4545   -0.7032   -2.6861 C   0  0
   -2.5284   -2.0692   -3.4625 Br  0  0
   -1.9161    0.6138   -2.6729 C   0  0
   -1.1329    1.6170   -2.1065 C   0  0
    0.1057    1.2791   -1.5582 C   0  0
    0.1713    3.5712    1.7172 C   0  0
   -0.7503    3.8904    2.7104 C   0  0
   -3.1259    5.3519    0.7593 H   0  0
   -1.5042    4.7923   -0.9746 H   0  0
    1.8689    3.9830   -0.3968 H   0  0
    0.6327    4.0373   -1.6291 H   0  0
    1.2189   -0.5957    1.1096 H   0  0
    1.4874   -1.9566    0.0706 H   0  0
    3.6615   -0.3145    1.4452 H   0  0
    3.2374   -1.9854    1.7422 H   0  0
    4.8593    0.1610   -0.9419 H   0  0
    5.0671   -1.2495   -1.9587 H   0  0
    2.7011   -1.4605   -2.3746 H   0  0
    3.1285    0.1811   -2.7280 H   0  0
    5.3781   -1.0015    3.0542 H   0  0
    6.3042    0.9075    4.2493 H   0  0
    8.1452    2.2246    3.2593 H   0  0
    9.0385    1.6143    1.0849 H   0  0
    0.1260   -2.0550   -2.1555 H   0  0
   -2.8775    0.8564   -3.1012 H   0  0
   -1.4943    2.6340   -2.1028 H   0  0
    1.0951    3.0785    1.9844 H   0  0
   -0.5157    3.6330    3.7338 H   0  0
  1  2  1  0
  2  3  2  0
  2  4  1  0
  4  5  2  0
  4 39  1  0
  5  6  1  0
  5 40  1  0
  6  7  2  0
  6 41  1  0
  7  8  1  0
  7 38  1  0
  8  9  1  0
  8 42  1  0
  8 43  1  0
  9 10  1  0
  9 37  1  0
 10 11  2  0
 10 12  1  0
 12 13  1  0
 12 17  1  0
 12 31  1  0
 13 14  1  0
 13 44  1  0
 13 45  1  0
 14 15  1  0
 14 46  1  0
 14 47  1  0
 15 16  1  0
 15 18  1  0
 16 17  1  0
 16 48  1  0
 16 49  1  0
 17 50  1  0
 17 51  1  0
 18 19  2  0
 18 20  2  0
 18 21  1  0
 21 22  2  0
 21 26  1  0
 22 23  1  0
 22 52  1  0
 23 24  2  0
 23 53  1  0
 24 25  1  0
 24 54  1  0
 25 26  2  0
 25 55  1  0
 26 27  1  0
 27 28  1  0
 27 29  1  0
 27 30  1  0
 31 32  2  0
 31 37  1  0
 32 33  1  0
 32 56  1  0
 33 34  1  0
 33 35  2  0
 35 36  1  0
 35 57  1  0
 36 37  2  0
 36 58  1  0
 38 39  2  0
 38 59  1  0
 39 60  1  0
M  CHG  1   1  -1
M  END
> <Name>
ligand_98

> <activity>
1

$$$$
ligand_99
  SciTegic10272118463D

 53 56  0  0  1  0            999 V2000
    1.8092   -6.6739   -2.6007 C   0  0
    0.5024   -5.9441   -2.9571 C   0  0
   -0.3725   -6.7806   -3.9086 C   0  0
   -0.2615   -5.5477   -1.7019 C   0  0
   -0.8085   -6.5594   -0.9820 O   0  0
   -1.5008   -6.0244    0.1013 N   0  0
   -1.3637   -4.7175    0.0248 C   0  0
   -1.9828   -3.8357    1.0663 C   0  0
   -1.1539   -2.9468    1.7555 C   0  0
   -1.6626   -2.0968    2.7314 C   0  0
   -3.0153   -2.1204    3.0427 C   0  0
   -3.8518   -2.9987    2.3650 C   0  0
   -3.3491   -3.8502    1.3826 C   0  0
   -4.4616   -4.8888    0.5576 Cl  0  0
   -0.5640   -4.3463   -1.0729 C   0  0
   -0.2328   -3.0150   -1.4995 C   0  0
   -1.0574   -2.1019   -1.4540 O   0  0
    1.0485   -2.8633   -1.8830 N   0  0
    1.6823   -1.5900   -2.2469 C   0  0  2  0  0  0
    3.0999   -1.8405   -2.7858 C   0  0
    1.6997   -0.5396   -1.1258 C   0  0
    1.5320    0.8091   -1.4447 C   0  0
    1.5004    1.7844   -0.4512 C   0  0
    1.6307    1.4219    0.9111 C   0  0
    1.5924    2.3806    1.9518 C   0  0
    1.7170    1.9966    3.2833 C   0  0
    1.8829    0.6580    3.6125 C   0  0
    1.9271   -0.3088    2.6132 C   0  0
    1.8031    0.0485    1.2493 C   0  0
    1.8408   -0.9170    0.2147 C   0  0
    2.4488   -6.0544   -1.9707 H   0  0
    1.6159   -7.6032   -2.0627 H   0  0
    2.3794   -6.9240   -3.4962 H   0  0
    0.7793   -5.0419   -3.5032 H   0  0
   -1.2785   -6.2412   -4.1882 H   0  0
    0.1612   -7.0186   -4.8294 H   0  0
   -0.6771   -7.7235   -3.4522 H   0  0
   -0.0970   -2.9102    1.5348 H   0  0
   -1.0022   -1.4158    3.2482 H   0  0
   -3.4133   -1.4611    3.8000 H   0  0
   -4.9060   -3.0135    2.6007 H   0  0
    1.6330   -3.6837   -1.9405 H   0  0
    1.0921   -1.1859   -3.0734 H   0  0
    3.5646   -0.9131   -3.1230 H   0  0
    3.7463   -2.2757   -2.0223 H   0  0
    3.0856   -2.5233   -3.6363 H   0  0
    1.4178    1.1095   -2.4762 H   0  0
    1.3676    2.8235   -0.7163 H   0  0
    1.4622    3.4244    1.7047 H   0  0
    1.6841    2.7421    4.0642 H   0  0
    1.9783    0.3671    4.6484 H   0  0
    2.0556   -1.3485    2.8782 H   0  0
    1.9708   -1.9568    0.4779 H   0  0
  1  2  1  0
  1 31  1  0
  1 32  1  0
  1 33  1  0
  2  3  1  0
  2  4  1  0
  2 34  1  0
  3 35  1  0
  3 36  1  0
  3 37  1  0
  4  5  1  0
  4 15  2  0
  5  6  1  0
  6  7  2  0
  7  8  1  0
  7 15  1  0
  8  9  2  0
  8 13  1  0
  9 10  1  0
  9 38  1  0
 10 11  2  0
 10 39  1  0
 11 12  1  0
 11 40  1  0
 12 13  2  0
 12 41  1  0
 13 14  1  0
 15 16  1  0
 16 17  2  0
 16 18  1  0
 18 19  1  0
 18 42  1  0
 19 20  1  0
 19 21  1  0
 19 43  1  0
 20 44  1  0
 20 45  1  0
 20 46  1  0
 21 22  2  0
 21 30  1  0
 22 23  1  0
 22 47  1  0
 23 24  2  0
 23 48  1  0
 24 25  1  0
 24 29  1  0
 25 26  2  0
 25 49  1  0
 26 27  1  0
 26 50  1  0
 27 28  2  0
 27 51  1  0
 28 29  1  0
 28 52  1  0
 29 30  2  0
 30 53  1  0
M  END
> <Name>
ligand_99

> <activity>
1

$$$$
ligand_100
  SciTegic10272118463D

 65 69  0  0  1  0            999 V2000
    6.8149   -9.3509    2.7152 C   0  0
    5.9563   -8.4814    1.8022 C   0  0
    5.9944   -8.6780    0.5884 O   0  0
    5.2201   -7.5334    2.4192 N   0  0
    4.3309   -6.5980    1.8573 C   0  0
    4.0043   -5.5006    2.6560 C   0  0
    3.1237   -4.5288    2.1892 C   0  0
    2.5604   -4.6430    0.9172 C   0  0
    1.6716   -3.6224    0.5352 N   0  0
    1.2897   -3.2513   -0.7064 C   0  0
    1.7181   -3.7549   -1.7458 O   0  0
    0.2865   -2.0729   -0.7710 C   0  0  2  0  0  0
   -0.5596   -1.9791   -2.0912 C   0  0
   -1.4108   -3.2576   -2.3474 C   0  0
   -2.2520   -3.1716   -3.6361 C   0  0
   -3.1488   -1.9221   -3.6517 C   0  0
   -2.3294   -0.6418   -3.4172 C   0  0
   -1.4848   -0.7270   -2.1307 C   0  0
    0.9492   -0.7864   -0.4653 N   0  0
    0.6388    0.0920    0.5667 C   0  0
    1.3619    1.1847    0.5544 N   0  0
    2.1979    1.0452   -0.5155 C   0  0
    3.1801    1.9290   -0.9821 C   0  0
    3.9075    1.5684   -2.1161 C   0  0
    4.8599    2.4075   -2.5834 F   0  0
    3.6674    0.3608   -2.7751 C   0  0
    4.3934    0.0499   -3.8731 F   0  0
    2.6949   -0.5391   -2.3320 C   0  0
    1.9671   -0.1793   -1.1896 C   0  0
   -0.4218   -0.1302    1.5903 C   0  0
   -0.3231   -1.1885    2.4982 C   0  0
   -1.3212   -1.3855    3.4488 C   0  0
   -2.4130   -0.5203    3.4942 C   0  0
   -3.6502   -0.7652    4.6721 Cl  0  0
   -2.5120    0.5429    2.5985 C   0  0
   -1.5138    0.7402    1.6480 C   0  0
    2.8651   -5.7571    0.1215 C   0  0
    3.7458   -6.7290    0.5887 C   0  0
    7.8670   -9.2478    2.4490 H   0  0
    6.7000   -9.0767    3.7645 H   0  0
    6.5356  -10.3989    2.6043 H   0  0
    5.3398   -7.4528    3.4177 H   0  0
    4.4335   -5.3896    3.6417 H   0  0
    2.8888   -3.6849    2.8223 H   0  0
    1.3096   -3.0733    1.2990 H   0  0
   -0.4349   -2.2597    0.0241 H   0  0
    0.1341   -1.8826   -2.9288 H   0  0
   -0.7777   -4.1424   -2.4117 H   0  0
   -2.0754   -3.4274   -1.4987 H   0  0
   -1.5873   -3.1528   -4.5013 H   0  0
   -2.8633   -4.0687   -3.7423 H   0  0
   -3.6825   -1.8563   -4.6006 H   0  0
   -3.9124   -2.0124   -2.8774 H   0  0
   -1.6712   -0.4714   -4.2706 H   0  0
   -2.9943    0.2214   -3.3695 H   0  0
   -2.1485   -0.7377   -1.2645 H   0  0
   -0.8990    0.1890   -2.0496 H   0  0
    3.3699    2.8668   -0.4814 H   0  0
    2.5247   -1.4674   -2.8564 H   0  0
    0.5269   -1.8534    2.4743 H   0  0
   -1.2459   -2.2041    4.1495 H   0  0
   -3.3582    1.2131    2.6397 H   0  0
   -1.5918    1.5650    0.9540 H   0  0
    2.4186   -5.8996   -0.8504 H   0  0
    3.9422   -7.5806   -0.0436 H   0  0
  1  2  1  0
  1 39  1  0
  1 40  1  0
  1 41  1  0
  2  3  2  0
  2  4  1  0
  4  5  1  0
  4 42  1  0
  5  6  2  0
  5 38  1  0
  6  7  1  0
  6 43  1  0
  7  8  2  0
  7 44  1  0
  8  9  1  0
  8 37  1  0
  9 10  1  0
  9 45  1  0
 10 11  2  0
 10 12  1  0
 12 13  1  0
 12 19  1  0
 12 46  1  0
 13 14  1  0
 13 18  1  0
 13 47  1  0
 14 15  1  0
 14 48  1  0
 14 49  1  0
 15 16  1  0
 15 50  1  0
 15 51  1  0
 16 17  1  0
 16 52  1  0
 16 53  1  0
 17 18  1  0
 17 54  1  0
 17 55  1  0
 18 56  1  0
 18 57  1  0
 19 20  1  0
 19 29  1  0
 20 21  2  0
 20 30  1  0
 21 22  1  0
 22 23  2  0
 22 29  1  0
 23 24  1  0
 23 58  1  0
 24 25  1  0
 24 26  2  0
 26 27  1  0
 26 28  1  0
 28 29  2  0
 28 59  1  0
 30 31  2  0
 30 36  1  0
 31 32  1  0
 31 60  1  0
 32 33  2  0
 32 61  1  0
 33 34  1  0
 33 35  1  0
 35 36  2  0
 35 62  1  0
 36 63  1  0
 37 38  2  0
 37 64  1  0
 38 65  1  0
M  END
> <Name>
ligand_100

> <activity>
1

$$$$
ligand_101
  SciTegic10272118463D

 72 76  0  0  1  0            999 V2000
   20.3751   -2.2510    1.7607 C   0  0
   13.5280   -5.8916    2.1211 C   0  0
   18.4874   -7.5115   -0.3098 C   0  0
   18.9133   -5.5539    1.0406 C   0  0
   15.1120   -3.9717   -0.4748 C   0  0
   13.3509   -6.7963    0.8820 C   0  0
   14.0651   -6.1920   -2.0747 O   0  0
   19.2460   -6.3759   -0.0389 C   0  0
   17.0773   -7.0248    1.5921 C   0  0
   11.1121   -5.7637    0.5488 C   0  0
   17.9087   -2.4347    1.2886 C   0  0
   11.6802   -2.3892   -1.1533 C   0  0
   11.8491   -4.9942   -2.3432 O   0  0
   17.1399   -3.1019    0.4021 N   0  0
   13.7753   -3.8635   -0.8690 C   0  0
   17.5568   -1.4618    1.9571 O   0  0
   21.0013   -4.3938    1.4900 N   0  0
   19.6977   -4.3124    1.3113 C   0  0
   23.6243   -2.7139    0.7593 C   0  0
   17.3950   -7.8391    0.4997 C   0  0
   12.2585   -5.5532    2.6804 O   0  0
   16.5718   -9.0873    0.1835 C   0  0
   11.3893   -4.8724    1.7755 C   0  0
   12.9918   -5.3692   -1.5030 S   0  0
   13.1272   -2.6173   -0.7376 C   0  0
   15.1511   -1.6468    0.1780 C   0  0
   21.4044   -3.1516    1.7818 N   0  0
   22.8142   -2.8903    2.0358 C   0  0
   17.8308   -5.8856    1.8587 C   0  0
   13.8243   -1.5229   -0.2167 C   0  0
   15.7981   -2.8804    0.0545 C   0  0
   12.3676   -6.2396   -0.0807 N   0  0
   19.2432   -2.9687    1.4021 C   0  0
   23.8611   -1.4390    0.2437 C   0  0
   24.5956   -1.2698   -0.9266 C   0  0
   25.0983   -2.3840   -1.5917 C   0  0
   24.8715   -3.6685   -1.0957 C   0  0
   24.1311   -3.8274    0.0872 C   0  0
   25.4056   -4.7126   -1.8263 O   0  0
   25.1986   -6.0493   -1.3826 C   0  0
   17.3764  -10.1378    0.0162 F   0  0
   15.7020   -9.3827    1.1519 F   0  0
   15.8898   -8.8882   -0.9443 F   0  0
   20.5400   -1.2050    1.9745 H   0  0
   14.1149   -6.4035    2.8833 H   0  0
   14.0576   -4.9727    1.8689 H   0  0
   18.7470   -8.1344   -1.1538 H   0  0
   15.6207   -4.9213   -0.5672 H   0  0
   14.2977   -6.9655    0.3699 H   0  0
   12.9879   -7.7792    1.1838 H   0  0
   20.0832   -6.1280   -0.6758 H   0  0
   16.2454   -7.2651    2.2368 H   0  0
   10.5466   -6.6464    0.8490 H   0  0
   10.5019   -5.2558   -0.1967 H   0  0
   11.0185   -3.1330   -0.7149 H   0  0
   11.3122   -1.4131   -0.8346 H   0  0
   11.5865   -2.4313   -2.2387 H   0  0
   17.5622   -3.9106   -0.0298 H   0  0
   11.8504   -3.9281    1.4839 H   0  0
   10.4585   -4.6342    2.2905 H   0  0
   15.6609   -0.7748    0.5581 H   0  0
   22.8952   -2.0018    2.6642 H   0  0
   23.2217   -3.7122    2.6279 H   0  0
   17.5690   -5.2586    2.6991 H   0  0
   13.3409   -0.5615   -0.1195 H   0  0
   23.4717   -0.5684    0.7515 H   0  0
   24.7735   -0.2788   -1.3174 H   0  0
   25.6670   -2.2513   -2.5005 H   0  0
   23.9365   -4.8088    0.4927 H   0  0
   25.6813   -6.7371   -2.0768 H   0  0
   25.6354   -6.2164   -0.3969 H   0  0
   24.1375   -6.3021   -1.3535 H   0  0
  1 27  1  0
  1 33  2  0
  1 44  1  0
  2  6  1  0
  2 21  1  0
  2 45  1  0
  2 46  1  0
  3  8  2  0
  3 20  1  0
  3 47  1  0
  4 18  1  0
  4  8  1  0
  4 29  2  0
  5 15  2  0
  5 31  1  0
  5 48  1  0
  6 32  1  0
  6 49  1  0
  6 50  1  0
  7 24  2  0
  8 51  1  0
  9 29  1  0
  9 20  2  0
  9 52  1  0
 10 23  1  0
 10 32  1  0
 10 53  1  0
 10 54  1  0
 11 16  2  0
 11 14  1  0
 11 33  1  0
 12 25  1  0
 12 55  1  0
 12 56  1  0
 12 57  1  0
 13 24  2  0
 14 31  1  0
 14 58  1  0
 15 25  1  0
 15 24  1  0
 17 18  2  0
 17 27  1  0
 18 33  1  0
 19 28  1  0
 19 34  1  0
 19 38  2  0
 20 22  1  0
 21 23  1  0
 22 41  1  0
 22 42  1  0
 22 43  1  0
 23 59  1  0
 23 60  1  0
 24 32  1  0
 25 30  2  0
 26 30  1  0
 26 31  2  0
 26 61  1  0
 27 28  1  0
 28 62  1  0
 28 63  1  0
 29 64  1  0
 30 65  1  0
 34 35  2  0
 34 66  1  0
 35 36  1  0
 35 67  1  0
 36 37  2  0
 36 68  1  0
 37 38  1  0
 37 39  1  0
 38 69  1  0
 39 40  1  0
 40 70  1  0
 40 71  1  0
 40 72  1  0
M  END
> <Name>
ligand_101

> <activity>
1

$$$$
ligand_102
  SciTegic10272118463D

 51 54  0  0  1  0            999 V2000
    5.4439   -3.0195    1.0317 C   0  0
   10.6316    2.1796    1.3411 N   0  0
    6.6264   -2.8682    0.2432 C   0  0
   11.0414    1.5652    0.2409 C   0  0
    5.1536   -2.3022    2.2223 C   0  0
    4.4956   -3.9770    0.5609 C   0  0
    3.9605   -2.5197    2.9093 C   0  0
   11.1584    3.3675    1.5160 C   0  0
    6.8291   -3.5879   -0.8887 N   0  0
   12.2576    3.8351    0.2616 S   0  0
   11.9515    2.3120   -0.5104 C   0  0
    3.3018   -4.1908    1.2869 C   0  0
    7.6078   -1.9334    0.6272 N   0  0
    3.0338   -3.4711    2.4615 C   0  0
   10.5303    0.1966   -0.1020 C   0  0
    4.7068   -4.7003   -0.5739 N   0  0
    5.8626   -4.4655   -1.2371 C   0  0
    3.7402   -1.7999    4.0611 O   0  0
    8.8391   -1.5377    0.0734 C   0  0
    9.3113   -0.2679    0.4027 C   0  0
    1.8939   -3.6513    3.2251 O   0  0
    2.7709   -0.7538    3.9760 C   0  0
   11.2760   -0.6390   -0.9378 C   0  0
   10.8325    4.2420    2.7029 C   0  0
   10.8246   -1.9117   -1.2631 C   0  0
    9.6112   -2.3575   -0.7548 C   0  0
    0.9154   -4.6000    2.8143 C   0  0
    2.3308   -0.4313    5.4104 C   0  0
    3.3683    0.4779    3.2710 C   0  0
    5.8563   -1.5746    2.6009 H   0  0
   12.4337    2.0548   -1.4416 H   0  0
    2.6090   -4.9277    0.9094 H   0  0
    7.2982   -1.3342    1.3768 H   0  0
    6.0295   -5.0377   -2.1384 H   0  0
    8.7228    0.3685    1.0485 H   0  0
    1.8881   -1.0830    3.4241 H   0  0
   12.2247   -0.3104   -1.3362 H   0  0
   11.7253    4.4726    3.2841 H   0  0
   10.3977    5.1913    2.3900 H   0  0
   10.1205    3.7737    3.3836 H   0  0
   11.4155   -2.5528   -1.9007 H   0  0
    9.2966   -3.3585   -1.0036 H   0  0
    0.0938   -4.6007    3.5303 H   0  0
    0.4999   -4.3494    1.8371 H   0  0
    1.3255   -5.6106    2.7834 H   0  0
    1.5748    0.3543    5.4254 H   0  0
    1.9014   -1.3103    5.8923 H   0  0
    3.1718   -0.0974    6.0191 H   0  0
    2.6572    1.3043    3.2516 H   0  0
    4.2697    0.8252    3.7769 H   0  0
    3.6332    0.2539    2.2375 H   0  0
  1  3  1  0
  1  5  2  0
  1  6  1  0
  2  4  1  0
  2  8  2  0
  3  9  2  0
  3 13  1  0
  4 11  2  0
  4 15  1  0
  5  7  1  0
  5 30  1  0
  6 12  2  0
  6 16  1  0
  7 14  2  0
  7 18  1  0
  8 10  1  0
  8 24  1  0
  9 17  1  0
 10 11  1  0
 11 31  1  0
 12 14  1  0
 12 32  1  0
 13 19  1  0
 13 33  1  0
 14 21  1  0
 15 20  1  0
 15 23  2  0
 16 17  2  0
 17 34  1  0
 18 22  1  0
 19 20  2  0
 19 26  1  0
 20 35  1  0
 21 27  1  0
 22 28  1  0
 22 29  1  0
 22 36  1  0
 23 25  1  0
 23 37  1  0
 24 38  1  0
 24 39  1  0
 24 40  1  0
 25 26  2  0
 25 41  1  0
 26 42  1  0
 27 43  1  0
 27 44  1  0
 27 45  1  0
 28 46  1  0
 28 47  1  0
 28 48  1  0
 29 49  1  0
 29 50  1  0
 29 51  1  0
M  END
> <Name>
ligand_102

> <activity>
1

$$$$
ligand_103
  SciTegic10272118463D

 66 70  0  0  1  0            999 V2000
    0.6029  -14.9806    5.6517 C   0  0
   -0.4086  -15.3439    4.7604 C   0  0
   -0.2404  -15.2468    3.3768 C   0  0
    1.8308  -14.5042    5.1937 C   0  0
    2.0262  -14.3972    3.8102 C   0  0
    0.9927  -14.7644    2.9153 C   0  0
    1.5166  -14.5258    1.6513 N   0  0
    2.8186  -14.0658    1.8671 C   0  0
    3.1296  -13.9663    3.1359 N   0  0
    0.7715  -14.7189    0.3822 C   0  0  2  0  0  0
    1.5432  -15.4723   -0.7268 C   0  0
   -0.0243  -13.4384   -0.0657 C   0  0
    1.8575  -14.7938   -1.8445 N   0  0
    1.8592  -16.6499   -0.5508 O   0  0
   -1.2578  -13.1467    0.8293 C   0  0
   -2.0930  -11.9587    0.3100 C   0  0
   -1.2365  -10.6919    0.1268 C   0  0
   -0.0012  -10.9625   -0.7522 C   0  0
    0.8265  -12.1501   -0.2232 C   0  0
    0.3932  -15.0917    6.9833 F   0  0
   -1.5853  -15.8025    5.2446 F   0  0
    3.8268  -13.7124    0.8275 C   0  0
    4.5518  -14.7225    0.1888 C   0  0
    5.5049  -14.3965   -0.7719 C   0  0
    5.7447  -13.0589   -1.0799 C   0  0
    5.0474  -12.0453   -0.4253 C   0  0
    4.0956  -12.3722    0.5369 C   0  0
    6.9155  -12.6550   -2.2812 Cl  0  0
    2.5577  -15.3191   -3.0180 C   0  0  1  0  0  0
    1.6710  -16.2032   -3.9273 C   0  0
    0.5762  -15.3853   -4.6446 C   0  0
    1.1798  -14.1950   -5.4446 C   0  0  2  0  0  0
    2.1434  -13.3295   -4.5881 C   0  0
    3.1965  -14.1939   -3.8620 C   0  0
    0.0879  -13.2875   -6.0646 C   0  0
   -1.1089  -13.4647   -5.7417 O   0  5
    0.4774  -12.4138   -6.8717 O   0  0
   -1.0362  -15.5337    2.7060 H   0  0
    2.6084  -14.2272    5.8899 H   0  0
    0.0021  -15.4568    0.6154 H   0  0
   -0.4412  -13.6569   -1.0520 H   0  0
    1.5499  -13.8355   -1.9154 H   0  0
   -1.8955  -14.0292    0.8933 H   0  0
   -0.9332  -12.9274    1.8470 H   0  0
   -2.5502  -12.2273   -0.6437 H   0  0
   -2.9170  -11.7547    0.9948 H   0  0
   -1.8382   -9.8938   -0.3099 H   0  0
   -0.9129  -10.3296    1.1038 H   0  0
   -0.3203  -11.1702   -1.7750 H   0  0
    0.6212  -10.0684   -0.8040 H   0  0
    1.2499  -11.8747    0.7429 H   0  0
    1.6680  -12.3174   -0.8940 H   0  0
    4.3684  -15.7604    0.4279 H   0  0
    6.0521  -15.1791   -1.2765 H   0  0
    5.2445  -11.0095   -0.6598 H   0  0
    3.5653  -11.5840    1.0512 H   0  0
    3.3754  -15.9346   -2.6351 H   0  0
    2.2963  -16.6978   -4.6721 H   0  0
    1.2132  -17.0053   -3.3466 H   0  0
    0.0133  -16.0428   -5.3091 H   0  0
   -0.1271  -15.0222   -3.8922 H   0  0
    1.7211  -14.5856   -6.3081 H   0  0
    2.6592  -12.5971   -5.2119 H   0  0
    1.5809  -12.7632   -3.8426 H   0  0
    3.8217  -13.5592   -3.2331 H   0  0
    3.8699  -14.6334   -4.5996 H   0  0
  1  2  2  0
  1  4  1  0
  1 20  1  0
  2  3  1  0
  2 21  1  0
  3  6  2  0
  3 38  1  0
  4  5  2  0
  4 39  1  0
  5  6  1  0
  5  9  1  0
  6  7  1  0
  7  8  1  0
  7 10  1  0
  8  9  2  0
  8 22  1  0
 10 11  1  0
 10 12  1  0
 10 40  1  0
 11 13  1  0
 11 14  2  0
 12 15  1  0
 12 19  1  0
 12 41  1  0
 13 29  1  0
 13 42  1  0
 15 16  1  0
 15 43  1  0
 15 44  1  0
 16 17  1  0
 16 45  1  0
 16 46  1  0
 17 18  1  0
 17 47  1  0
 17 48  1  0
 18 19  1  0
 18 49  1  0
 18 50  1  0
 19 51  1  0
 19 52  1  0
 22 23  2  0
 22 27  1  0
 23 24  1  0
 23 53  1  0
 24 25  2  0
 24 54  1  0
 25 26  1  0
 25 28  1  0
 26 27  2  0
 26 55  1  0
 27 56  1  0
 29 30  1  0
 29 34  1  0
 29 57  1  0
 30 31  1  0
 30 58  1  0
 30 59  1  0
 31 32  1  0
 31 60  1  0
 31 61  1  0
 32 33  1  0
 32 35  1  0
 32 62  1  0
 33 34  1  0
 33 63  1  0
 33 64  1  0
 34 65  1  0
 34 66  1  0
 35 36  1  0
 35 37  2  0
M  CHG  1  36  -1
M  END
> <Name>
ligand_103

> <activity>
1

$$$$
ligand_104
  SciTegic10272118463D

 69 73  0  0  1  0            999 V2000
   12.3754    0.7162    5.5045 C   0  0
   11.5264   -0.3912    5.4557 C   0  0
   11.1250   -0.9582    4.2436 C   0  0
   12.8617    1.3039    4.3372 C   0  0
   12.4751    0.7545    3.1074 C   0  0
   11.6099   -0.3653    3.0690 C   0  0
   11.4325   -0.6304    1.7173 N   0  0
   12.2161    0.3127    1.0458 C   0  0
   12.8225    1.1503    1.8502 N   0  0
   10.5551   -1.6998    1.1767 C   0  0  2  0  0  0
   11.1865   -2.5575    0.0543 C   0  0
    9.0743   -1.2213    0.9495 C   0  0
   10.6346   -2.5043   -1.1723 N   0  0
   12.1846   -3.2348    0.3054 O   0  0
    8.2987   -1.0005    2.2755 C   0  0
    6.8187   -0.6375    2.0392 C   0  0
    6.6694    0.5811    1.1096 C   0  0
    7.4368    0.3856   -0.2112 C   0  0
    8.9144    0.0217    0.0344 C   0  0
   12.7362    1.2305    6.7023 F   0  0
   11.0773   -0.9331    6.6107 F   0  0
   12.4176    0.4222   -0.4276 C   0  0
   13.3378   -0.4143   -1.0659 C   0  0
   13.5368   -0.3135   -2.4399 C   0  0
   12.8281    0.6370   -3.1717 C   0  0
   11.9341    1.4973   -2.5368 C   0  0
   11.7371    1.3969   -1.1620 C   0  0
   13.0595    0.7482   -4.8778 Cl  0  0
   11.1214   -3.1890   -2.3702 C   0  0  1  0  0  0
   10.8448   -4.7111   -2.3874 C   0  0
   11.3878   -5.3946   -3.6588 C   0  0
   10.8705   -4.7315   -4.9574 C   0  0  1  0  0  0
   11.1485   -3.2069   -4.9364 C   0  0
   10.6008   -2.5292   -3.6653 C   0  0
   11.4574   -5.4356   -6.2135 C   0  0
   10.7532   -5.0621   -7.5304 C   0  0
    9.5213   -4.8429   -7.5066 O   0  5
   11.4675   -5.0245   -8.5562 O   0  0
   10.4683   -1.8150    4.2295 H   0  0
   13.5200    2.1587    4.3839 H   0  0
   10.4900   -2.4426    1.9736 H   0  0
    8.5507   -2.0420    0.4535 H   0  0
    9.8050   -1.9428   -1.2946 H   0  0
    8.3514   -1.8949    2.8975 H   0  0
    8.7660   -0.1991    2.8486 H   0  0
    6.3012   -1.4927    1.6016 H   0  0
    6.3265   -0.4404    2.9924 H   0  0
    5.6146    0.7685    0.9050 H   0  0
    7.0440    1.4714    1.6173 H   0  0
    6.9611   -0.4043   -0.7946 H   0  0
    7.3720    1.2909   -0.8160 H   0  0
    9.4091    0.8770    0.4950 H   0  0
    9.4018   -0.1385   -0.9264 H   0  0
   13.8881   -1.1524   -0.5000 H   0  0
   14.2341   -0.9738   -2.9343 H   0  0
   11.3957    2.2403   -3.1066 H   0  0
   11.0515    2.0723   -0.6714 H   0  0
   12.2059   -3.0520   -2.3681 H   0  0
   11.2869   -5.1839   -1.5094 H   0  0
    9.7702   -4.8860   -2.3130 H   0  0
   12.4786   -5.3627   -3.6424 H   0  0
   11.1160   -6.4511   -3.6437 H   0  0
    9.7871   -4.8721   -4.9573 H   0  0
   12.2231   -3.0286   -5.0035 H   0  0
   10.7085   -2.7294   -5.8129 H   0  0
    9.5101   -2.5652   -3.6802 H   0  0
   10.8645   -1.4711   -3.6785 H   0  0
   12.5267   -5.2321   -6.2941 H   0  0
   11.3624   -6.5170   -6.1086 H   0  0
  1  2  2  0
  1  4  1  0
  1 20  1  0
  2  3  1  0
  2 21  1  0
  3  6  2  0
  3 39  1  0
  4  5  2  0
  4 40  1  0
  5  6  1  0
  5  9  1  0
  6  7  1  0
  7  8  1  0
  7 10  1  0
  8  9  2  0
  8 22  1  0
 10 11  1  0
 10 12  1  0
 10 41  1  0
 11 13  1  0
 11 14  2  0
 12 15  1  0
 12 19  1  0
 12 42  1  0
 13 29  1  0
 13 43  1  0
 15 16  1  0
 15 44  1  0
 15 45  1  0
 16 17  1  0
 16 46  1  0
 16 47  1  0
 17 18  1  0
 17 48  1  0
 17 49  1  0
 18 19  1  0
 18 50  1  0
 18 51  1  0
 19 52  1  0
 19 53  1  0
 22 23  2  0
 22 27  1  0
 23 24  1  0
 23 54  1  0
 24 25  2  0
 24 55  1  0
 25 26  1  0
 25 28  1  0
 26 27  2  0
 26 56  1  0
 27 57  1  0
 29 30  1  0
 29 34  1  0
 29 58  1  0
 30 31  1  0
 30 59  1  0
 30 60  1  0
 31 32  1  0
 31 61  1  0
 31 62  1  0
 32 33  1  0
 32 35  1  0
 32 63  1  0
 33 34  1  0
 33 64  1  0
 33 65  1  0
 34 66  1  0
 34 67  1  0
 35 36  1  0
 35 68  1  0
 35 69  1  0
 36 37  1  0
 36 38  2  0
M  CHG  1  37  -1
M  END
> <Name>
ligand_104

> <activity>
1

$$$$
ligand_105
  SciTegic10272118463D

 57 61  0  0  1  0            999 V2000
   -2.6855    6.9644    1.8879 O   0  5
   -1.5751    6.4658    2.1845 C   0  0
   -0.9592    6.7109    3.2475 O   0  0
   -0.9442    5.5164    1.2062 C   0  0
   -1.5849    5.2038   -0.0031 C   0  0
   -1.0012    4.3231   -0.9097 C   0  0
    0.2285    3.7340   -0.6167 C   0  0
    0.8773    2.7831   -1.6133 C   0  0
    0.9281    1.3899   -1.1496 N   0  0
    2.0885    0.8354   -0.7162 C   0  0
    3.2021    1.3629   -0.6686 O   0  0
    1.7575   -0.6112   -0.2742 C   0  0
    2.1136   -0.8225    1.2269 C   0  0
    3.6280   -0.9552    1.4974 C   0  0
    4.2831   -1.9429    0.6001 N   0  0
    4.0172   -1.7519   -0.8486 C   0  0
    2.5100   -1.6435   -1.1633 C   0  0
    5.9433   -2.3900    1.0408 S   0  0
    5.9556   -2.6680    2.4826 O   0  0
    6.4088   -3.4229    0.1088 O   0  0
    6.9263   -0.8940    0.7815 C   0  0
    7.1339   -0.0555    1.8796 C   0  0
    7.8654    1.1207    1.7615 C   0  0
    8.4052    1.4877    0.5376 C   0  0
    8.2023    0.6672   -0.5638 C   0  0
    7.4700   -0.5141   -0.4581 C   0  0
    7.2547   -1.5354   -2.0559 Br  0  0
    0.2728   -0.6820   -0.4950 C   0  0
   -0.6459   -1.7075   -0.2708 C   0  0
   -1.9923   -1.4945   -0.5680 C   0  0
   -3.2537   -2.8871   -0.2654 Br  0  0
   -2.4244   -0.2723   -1.0850 C   0  0
   -1.5044    0.7496   -1.3091 C   0  0
   -0.1598    0.5268   -1.0069 C   0  0
    0.8834    4.0457    0.5750 C   0  0
    0.2994    4.9263    1.4813 C   0  0
   -2.5409    5.6423   -0.2526 H   0  0
   -1.5092    4.1012   -1.8368 H   0  0
    1.8791    3.1623   -1.8231 H   0  0
    0.3330    2.8168   -2.5579 H   0  0
    1.6974   -0.0251    1.8459 H   0  0
    1.6319   -1.7361    1.5794 H   0  0
    4.1355    0.0008    1.3648 H   0  0
    3.8009   -1.2583    2.5304 H   0  0
    4.5462   -0.8535   -1.1668 H   0  0
    4.4572   -2.5877   -1.3931 H   0  0
    2.0659   -2.6293   -1.0147 H   0  0
    2.3703   -1.4257   -2.2240 H   0  0
    6.7216   -0.3091    2.8452 H   0  0
    8.0122    1.7522    2.6255 H   0  0
    8.9731    2.4015    0.4418 H   0  0
    8.6181    0.9548   -1.5185 H   0  0
   -0.3301   -2.6598    0.1290 H   0  0
   -3.4690   -0.1177   -1.3121 H   0  0
   -1.8447    1.6911   -1.7124 H   0  0
    1.8425    3.6032    0.8029 H   0  0
    0.8257    5.1455    2.3997 H   0  0
  1  2  1  0
  2  3  2  0
  2  4  1  0
  4  5  2  0
  4 36  1  0
  5  6  1  0
  5 37  1  0
  6  7  2  0
  6 38  1  0
  7  8  1  0
  7 35  1  0
  8  9  1  0
  8 39  1  0
  8 40  1  0
  9 10  1  0
  9 34  1  0
 10 11  2  0
 10 12  1  0
 12 13  1  0
 12 17  1  0
 12 28  1  0
 13 14  1  0
 13 41  1  0
 13 42  1  0
 14 15  1  0
 14 43  1  0
 14 44  1  0
 15 16  1  0
 15 18  1  0
 16 17  1  0
 16 45  1  0
 16 46  1  0
 17 47  1  0
 17 48  1  0
 18 19  2  0
 18 20  2  0
 18 21  1  0
 21 22  2  0
 21 26  1  0
 22 23  1  0
 22 49  1  0
 23 24  2  0
 23 50  1  0
 24 25  1  0
 24 51  1  0
 25 26  2  0
 25 52  1  0
 26 27  1  0
 28 29  2  0
 28 34  1  0
 29 30  1  0
 29 53  1  0
 30 31  1  0
 30 32  2  0
 32 33  1  0
 32 54  1  0
 33 34  2  0
 33 55  1  0
 35 36  2  0
 35 56  1  0
 36 57  1  0
M  CHG  1   1  -1
M  END
> <Name>
ligand_105

> <activity>
1

$$$$
ligand_106
  SciTegic10272118463D

 56 59  0  0  1  0            999 V2000
    0.4090    2.5488    2.8647 C   0  0
   -0.7925    1.9131    3.1732 C   0  0
   -1.7043    1.5806    2.1621 C   0  0
   -1.3948    1.8921    0.8409 C   0  0
   -0.1978    2.5263    0.5255 C   0  0
    0.7152    2.8682    1.5309 C   0  0
    1.4925    2.9130    4.1667 Cl  0  0
    1.9958    3.5286    1.1852 C   0  0
    2.6516    3.4283    0.0098 C   0  0
    3.9286    4.0845   -0.3371 C   0  0
    5.4410    4.8766   -2.0640 C   0  0
    4.2561    4.2553   -1.6833 C   0  0
    4.8213    4.5560    0.6327 C   0  0
    6.0231    5.1861    0.2705 C   0  0
    6.3203    5.3402   -1.0917 C   0  0
    6.9736    5.6857    1.3211 C   0  0
    8.0332    6.2362    0.9420 O   0  0
    6.6590    5.5272    2.5232 O   0  5
   -2.9144    0.9511    2.3769 O   0  0
   -3.3071    0.6167    3.7038 C   0  0
   -4.6667   -0.0455    3.6594 C   0  0
   -5.9114    0.5241    3.9671 C   0  0
   -6.9015   -0.3348    3.8773 N   0  0
   -6.3236   -1.5390    3.4927 O   0  0
   -4.9856   -1.3636    3.3535 C   0  0
   -4.2099   -2.6034    2.9288 C   0  0
   -2.9340   -2.2807    2.1281 C   0  0
   -3.9047   -3.5005    4.1405 C   0  0
   -6.1796    1.9363    4.3706 C   0  0
   -6.6577    4.6050    5.1359 N   0  0
   -6.7805    3.5878    6.0236 C   0  0
   -6.5522    2.2512    5.6905 C   0  0
   -6.0490    2.9857    3.4426 C   0  0
   -6.2959    4.2928    3.8671 C   0  0
   -6.7164    1.0406    6.9171 Cl  0  0
   -5.6129    2.7099    1.7902 Cl  0  0
   -1.0000    1.6817    4.2068 H   0  0
   -2.0902    1.6410    0.0533 H   0  0
    0.0043    2.7594   -0.5094 H   0  0
    2.4157    4.1611    1.9529 H   0  0
    2.2359    2.7956   -0.7611 H   0  0
    5.6768    4.9997   -3.1108 H   0  0
    3.5837    3.9045   -2.4532 H   0  0
    4.5845    4.4240    1.6788 H   0  0
    7.2353    5.8202   -1.4095 H   0  0
   -2.5760   -0.0423    4.1742 H   0  0
   -3.3417    1.5170    4.3198 H   0  0
   -4.8476   -3.1771    2.2539 H   0  0
   -2.4873   -3.1897    1.7237 H   0  0
   -3.1497   -1.6243    1.2840 H   0  0
   -2.1742   -1.7978    2.7418 H   0  0
   -3.3914   -4.4140    3.8378 H   0  0
   -3.2696   -2.9889    4.8652 H   0  0
   -4.8199   -3.7973    4.6546 H   0  0
   -7.0651    3.8639    7.0286 H   0  0
   -6.2081    5.1209    3.1789 H   0  0
  1  2  2  0
  1  6  1  0
  1  7  1  0
  2  3  1  0
  2 37  1  0
  3  4  2  0
  3 19  1  0
  4  5  1  0
  4 38  1  0
  5  6  2  0
  5 39  1  0
  6  8  1  0
  8  9  2  0
  8 40  1  0
  9 10  1  0
  9 41  1  0
 10 12  2  0
 10 13  1  0
 11 12  1  0
 11 15  2  0
 11 42  1  0
 12 43  1  0
 13 14  2  0
 13 44  1  0
 14 15  1  0
 14 16  1  0
 15 45  1  0
 16 17  2  0
 16 18  1  0
 19 20  1  0
 20 21  1  0
 20 46  1  0
 20 47  1  0
 21 22  1  0
 21 25  2  0
 22 23  2  0
 22 29  1  0
 23 24  1  0
 24 25  1  0
 25 26  1  0
 26 27  1  0
 26 28  1  0
 26 48  1  0
 27 49  1  0
 27 50  1  0
 27 51  1  0
 28 52  1  0
 28 53  1  0
 28 54  1  0
 29 32  2  0
 29 33  1  0
 30 31  2  0
 30 34  1  0
 31 32  1  0
 31 55  1  0
 32 35  1  0
 33 34  2  0
 33 36  1  0
 34 56  1  0
M  CHG  1  18  -1
M  END
> <Name>
ligand_106

> <activity>
1

$$$$
ligand_107
  SciTegic10272118463D

 57 61  0  0  1  0            999 V2000
   -3.1091    5.9672    3.0919 O   0  5
   -2.0785    5.3182    3.3851 C   0  0
   -1.7174    5.0703    4.5588 O   0  0
   -1.2240    4.8056    2.2609 C   0  0
   -1.5757    5.0522    0.9245 C   0  0
   -0.7848    4.5764   -0.1179 C   0  0
    0.3655    3.8384    0.1602 C   0  0
    1.2411    3.3305   -0.9772 C   0  0
    1.2247    1.8687   -1.1240 N   0  0
    2.2767    1.1103   -0.7239 C   0  0
    3.3405    1.4981   -0.2354 O   0  0
    1.8928   -0.3661   -0.9895 C   0  0
    1.9161   -1.1870    0.3333 C   0  0
    3.3373   -1.5154    0.8396 C   0  0
    4.1995   -2.1006   -0.2207 N   0  0
    4.2519   -1.3287   -1.4901 C   0  0
    2.8476   -1.0016   -2.0417 C   0  0
    5.7485   -2.7621    0.3341 S   0  0
    5.4967   -3.5541    1.5442 O   0  0
    6.4231   -3.3676   -0.8207 O   0  0
    6.7124   -1.3305    0.8250 C   0  0
    6.6244   -0.8489    2.1336 C   0  0
    7.3540    0.2765    2.5075 C   0  0
    8.1653    0.9173    1.5723 C   0  0
    9.0687    2.3125    2.0367 Cl  0  0
    8.2519    0.4418    0.2647 C   0  0
    7.5230   -0.6834   -0.1112 C   0  0
    0.4949   -0.2423   -1.5268 C   0  0
   -0.4242   -1.2070   -1.9395 C   0  0
   -1.6777   -0.8026   -2.3993 C   0  0
   -2.9389   -2.1112   -2.9644 Br  0  0
   -2.0172    0.5501   -2.4500 C   0  0
   -1.0967    1.5114   -2.0383 C   0  0
    0.1543    1.0962   -1.5784 C   0  0
    0.7349    3.5973    1.4837 C   0  0
   -0.0562    4.0731    2.5256 C   0  0
   -2.4647    5.6169    0.6810 H   0  0
   -1.0713    4.7826   -1.1388 H   0  0
    2.2545    3.6943   -0.7977 H   0  0
    0.9164    3.7792   -1.9167 H   0  0
    1.3527   -0.6811    1.1200 H   0  0
    1.3938   -2.1317    0.1728 H   0  0
    3.8343   -0.6211    1.2164 H   0  0
    3.2881   -2.2186    1.6715 H   0  0
    4.8199   -0.4172   -1.3018 H   0  0
    4.8193   -1.9051   -2.2213 H   0  0
    2.4060   -1.9319   -2.4035 H   0  0
    2.9375   -0.3672   -2.9258 H   0  0
    5.9916   -1.3399    2.8587 H   0  0
    7.2881    0.6511    3.5185 H   0  0
    8.8797    0.9440   -0.4567 H   0  0
    7.5870   -1.0459   -1.1269 H   0  0
   -0.1795   -2.2585   -1.9069 H   0  0
   -2.9902    0.8527   -2.8080 H   0  0
   -1.3643    2.5561   -2.0833 H   0  0
    1.6318    3.0375    1.7068 H   0  0
    0.2501    3.8668    3.5415 H   0  0
  1  2  1  0
  2  3  2  0
  2  4  1  0
  4  5  2  0
  4 36  1  0
  5  6  1  0
  5 37  1  0
  6  7  2  0
  6 38  1  0
  7  8  1  0
  7 35  1  0
  8  9  1  0
  8 39  1  0
  8 40  1  0
  9 10  1  0
  9 34  1  0
 10 11  2  0
 10 12  1  0
 12 13  1  0
 12 17  1  0
 12 28  1  0
 13 14  1  0
 13 41  1  0
 13 42  1  0
 14 15  1  0
 14 43  1  0
 14 44  1  0
 15 16  1  0
 15 18  1  0
 16 17  1  0
 16 45  1  0
 16 46  1  0
 17 47  1  0
 17 48  1  0
 18 19  2  0
 18 20  2  0
 18 21  1  0
 21 22  2  0
 21 27  1  0
 22 23  1  0
 22 49  1  0
 23 24  2  0
 23 50  1  0
 24 25  1  0
 24 26  1  0
 26 27  2  0
 26 51  1  0
 27 52  1  0
 28 29  2  0
 28 34  1  0
 29 30  1  0
 29 53  1  0
 30 31  1  0
 30 32  2  0
 32 33  1  0
 32 54  1  0
 33 34  2  0
 33 55  1  0
 35 36  2  0
 35 56  1  0
 36 57  1  0
M  CHG  1   1  -1
M  END
> <Name>
ligand_107

> <activity>
1

$$$$
ligand_108
  SciTegic10272118463D

 64 68  0  0  1  0            999 V2000
   -0.9940   -9.9109    4.2979 C   0  0
   -1.6434   -9.4212    3.1625 C   0  0
   -0.9406   -8.8314    2.1087 C   0  0
    0.3924   -9.8312    4.4271 C   0  0
    1.1230   -9.2460    3.3844 C   0  0
    0.4529   -8.7527    2.2385 C   0  0
    1.4634   -8.2490    1.4325 N   0  0
    2.6520   -8.4885    2.1194 C   0  0
    2.4709   -9.0589    3.2853 N   0  0
    1.2625   -7.5967    0.1178 C   0  0  2  0  0  0
    1.5268   -8.5826   -1.0446 C   0  0
    1.9573   -6.1910    0.0056 C   0  0
    0.6723   -9.6236   -1.1413 N   0  0
    2.4855   -8.4144   -1.8018 O   0  0
    1.5408   -5.4146   -1.2787 C   0  0
    2.2310   -4.0410   -1.3956 C   0  0
    1.9954   -3.1725   -0.1478 C   0  0
    2.3972   -3.9150    1.1382 C   0  0
    1.7042   -5.2872    1.2478 C   0  0
   -1.7182  -10.4729    5.2924 F   0  0
   -2.9897   -9.5173    3.0764 F   0  0
    4.0183   -8.1399    1.6399 C   0  0
    4.7406   -7.1367    2.2922 C   0  0
    6.0138   -6.7933    1.8455 C   0  0
    6.5663   -7.4609    0.7540 C   0  0
    5.8575   -8.4735    0.1100 C   0  0
    4.5846   -8.8169    0.5571 C   0  0
    8.1431   -7.0332    0.1983 Cl  0  0
    0.7497  -10.6492   -2.0937 C   0  0
    0.8825  -11.9524   -1.6142 C   0  0
    0.9581  -13.0221   -2.5017 C   0  0
    0.8912  -12.8150   -3.8871 C   0  0
    0.7379  -11.4994   -4.3559 C   0  0
    0.6569  -10.4046   -3.4765 C   0  0
    0.9747  -13.9719   -4.8424 C   0  0
    1.1085  -15.1215   -4.3631 O   0  5
    0.9057  -13.7284   -6.0693 O   0  0
    0.4685   -9.0987   -3.8988 O   0  0
    0.4299   -8.8058   -5.2907 C   0  0
   -1.4638   -8.4580    1.2411 H   0  0
    0.8862  -10.2125    5.3086 H   0  0
    0.1952   -7.3781    0.0572 H   0  0
    3.0340   -6.3481   -0.0665 H   0  0
   -0.0280   -9.7328   -0.4234 H   0  0
    1.7692   -5.9875   -2.1770 H   0  0
    0.4588   -5.2730   -1.2840 H   0  0
    3.3029   -4.1868   -1.5392 H   0  0
    1.8738   -3.5190   -2.2842 H   0  0
    2.5529   -2.2388   -0.2308 H   0  0
    0.9415   -2.8949   -0.0925 H   0  0
    3.4793   -4.0549    1.1544 H   0  0
    2.1564   -3.3051    2.0098 H   0  0
    0.6307   -5.1398    1.3775 H   0  0
    2.0502   -5.7694    2.1613 H   0  0
    4.3122   -6.6169    3.1372 H   0  0
    6.5685   -6.0122    2.3443 H   0  0
    6.2908   -8.9923   -0.7325 H   0  0
    4.0414   -9.6075    0.0602 H   0  0
    0.9387  -12.1434   -0.5518 H   0  0
    1.0700  -14.0185   -2.0974 H   0  0
    0.6731  -11.3342   -5.4209 H   0  0
   -0.4110   -9.2990   -5.7805 H   0  0
    0.3056   -7.7317   -5.4270 H   0  0
    1.3575   -9.0953   -5.7869 H   0  0
  1  2  2  0
  1  4  1  0
  1 20  1  0
  2  3  1  0
  2 21  1  0
  3  6  2  0
  3 40  1  0
  4  5  2  0
  4 41  1  0
  5  6  1  0
  5  9  1  0
  6  7  1  0
  7  8  1  0
  7 10  1  0
  8  9  2  0
  8 22  1  0
 10 11  1  0
 10 12  1  0
 10 42  1  0
 11 13  1  0
 11 14  2  0
 12 15  1  0
 12 19  1  0
 12 43  1  0
 13 29  1  0
 13 44  1  0
 15 16  1  0
 15 45  1  0
 15 46  1  0
 16 17  1  0
 16 47  1  0
 16 48  1  0
 17 18  1  0
 17 49  1  0
 17 50  1  0
 18 19  1  0
 18 51  1  0
 18 52  1  0
 19 53  1  0
 19 54  1  0
 22 23  2  0
 22 27  1  0
 23 24  1  0
 23 55  1  0
 24 25  2  0
 24 56  1  0
 25 26  1  0
 25 28  1  0
 26 27  2  0
 26 57  1  0
 27 58  1  0
 29 30  2  0
 29 34  1  0
 30 31  1  0
 30 59  1  0
 31 32  2  0
 31 60  1  0
 32 33  1  0
 32 35  1  0
 33 34  2  0
 33 61  1  0
 34 38  1  0
 35 36  1  0
 35 37  2  0
 38 39  1  0
 39 62  1  0
 39 63  1  0
 39 64  1  0
M  CHG  1  36  -1
M  END
> <Name>
ligand_108

> <activity>
1

$$$$
ligand_109
  SciTegic10272118463D

 63 67  0  0  1  0            999 V2000
   -0.6945    2.7718    1.6367 C   0  0
   -0.7946    3.1789    0.2692 C   0  0
   -0.0227    2.3055   -0.4746 N   0  0
    0.5421    1.3843    0.3730 C   0  0
    0.1690    1.6137    1.6874 C   0  0
    0.5787    0.8322    2.8588 C   0  0
    0.1352    1.1905    3.9723 O   0  5
    1.3432   -0.1379    2.6550 O   0  0
    0.1656    2.3460   -1.9161 C   0  0
   -2.1622    4.6077    2.1973 C   0  0
   -2.2594    4.9897    0.8574 C   0  0
   -1.5643    4.2799   -0.1287 C   0  0
   -1.3980    3.5160    2.5994 C   0  0
   -3.0950    6.1661    0.4857 C   0  0
   -4.9140    7.2148   -0.7275 C   0  0
   -4.6315    8.4333   -0.1076 C   0  0
   -3.5668    8.5285    0.7821 C   0  0
   -2.8101    7.4012    1.0802 C   0  0
   -4.1629    6.0764   -0.4303 C   0  0
   -4.5550    4.7614   -1.0934 C   0  0
   -5.3832    9.5579   -0.3568 O   0  0
   -6.7661    9.4795   -0.0099 C   0  0
   -6.9439    9.6285    1.4929 C   0  0
   -7.2944   10.5040    3.5231 O   0  0
   -7.1620    9.1309    3.6882 N   0  0
   -6.9540    8.6312    2.4888 C   0  0
   -7.1462   10.7999    2.2097 C   0  0
   -7.2515   12.2702    1.8502 C   0  0  2  0  0  0
   -8.8272   12.5602    1.0684 Cl  0  0
   -6.1142   12.7611    0.9400 C   0  0
   -6.7824    7.1531    2.3183 C   0  0
   -5.8935    6.3658    3.0694 C   0  0
   -5.8209    4.9951    2.8226 C   0  0
   -6.6185    4.4361    1.8298 C   0  0
   -7.4656    5.2721    1.1067 C   0  0
   -7.5572    6.6101    1.3452 N   0  0
   -4.8473    7.0450    4.2688 Cl  0  0
   -8.2282    4.7105    0.0991 O   0  0
   -9.0611    5.5474   -0.7017 C   0  0
    1.1833    0.6148   -0.0331 H   0  0
   -0.8012    2.2392   -2.4091 H   0  0
    0.6108    3.3016   -2.1949 H   0  0
    0.8230    1.5372   -2.2382 H   0  0
   -2.6978    5.1670    2.9509 H   0  0
   -1.6205    4.5768   -1.1658 H   0  0
   -1.3529    3.2509    3.6453 H   0  0
   -5.7348    7.1508   -1.4267 H   0  0
   -3.3410    9.4718    1.2569 H   0  0
   -1.9947    7.4889    1.7837 H   0  0
   -4.4780    3.9280   -0.3945 H   0  0
   -5.5852    4.7847   -1.4516 H   0  0
   -3.9083    4.5591   -1.9470 H   0  0
   -7.2851   10.2820   -0.5337 H   0  0
   -7.2385    8.5772   -0.3977 H   0  0
   -7.2479   12.8787    2.7558 H   0  0
   -6.1988   13.8325    0.7555 H   0  0
   -5.1399   12.5838    1.3969 H   0  0
   -6.1204   12.2645   -0.0298 H   0  0
   -5.1409    4.3713    3.3842 H   0  0
   -6.5683    3.3795    1.6127 H   0  0
   -9.5772    4.9398   -1.4449 H   0  0
   -9.8193    6.0506   -0.0997 H   0  0
   -8.4752    6.2976   -1.2353 H   0  0
  1  2  1  0
  1  5  1  0
  1 13  2  0
  2  3  1  0
  2 12  2  0
  3  4  1  0
  3  9  1  0
  4  5  2  0
  4 40  1  0
  5  6  1  0
  6  7  1  0
  6  8  2  0
  9 41  1  0
  9 42  1  0
  9 43  1  0
 10 11  2  0
 10 13  1  0
 10 44  1  0
 11 12  1  0
 11 14  1  0
 12 45  1  0
 13 46  1  0
 14 18  2  0
 14 19  1  0
 15 16  1  0
 15 19  2  0
 15 47  1  0
 16 17  2  0
 16 21  1  0
 17 18  1  0
 17 48  1  0
 18 49  1  0
 19 20  1  0
 20 50  1  0
 20 51  1  0
 20 52  1  0
 21 22  1  0
 22 23  1  0
 22 53  1  0
 22 54  1  0
 23 26  1  0
 23 27  2  0
 24 25  1  0
 24 27  1  0
 25 26  2  0
 26 31  1  0
 27 28  1  0
 28 29  1  0
 28 30  1  0
 28 55  1  0
 30 56  1  0
 30 57  1  0
 30 58  1  0
 31 32  2  0
 31 36  1  0
 32 33  1  0
 32 37  1  0
 33 34  2  0
 33 59  1  0
 34 35  1  0
 34 60  1  0
 35 36  2  0
 35 38  1  0
 38 39  1  0
 39 61  1  0
 39 62  1  0
 39 63  1  0
M  CHG  1   7  -1
M  END
> <Name>
ligand_109

> <activity>
1

$$$$
ligand_110
  SciTegic10272118463D

 58 62  0  0  1  0            999 V2000
    4.3671    0.5387   -2.5731 F   0  0
    3.3037    1.0243   -1.8928 C   0  0
    2.2837    0.1526   -1.5123 C   0  0
    1.1916    0.6768   -0.8079 C   0  0
    0.0933    0.0250   -0.3264 N   0  0
   -0.6292    0.9542    0.2493 C   0  0
   -1.9201    0.6341    0.9221 C   0  0
   -1.9255   -0.2208    2.0278 C   0  0
   -3.1249   -0.5260    2.6658 C   0  0
   -4.3175    0.0186    2.1928 C   0  0
   -5.8040   -0.3593    2.9837 Cl  0  0
   -4.3199    0.8633    1.0841 C   0  0
   -3.1207    1.1688    0.4462 C   0  0
   -0.0551    2.2188    0.1845 N   0  0
   -0.5776    3.4666    0.7823 C   0  0  1  0  0  0
    0.3104    3.9362    1.9898 C   0  0
   -0.3058    5.1481    2.7491 C   0  0
    0.5536    5.6099    3.9424 C   0  0
    0.8412    4.4579    4.9203 C   0  0
    1.4667    3.2529    4.1976 C   0  0
    0.6105    2.7914    3.0019 C   0  0
   -0.8463    4.5396   -0.3018 C   0  0
   -0.0569    5.4728   -0.4550 O   0  0
   -1.9482    4.3391   -1.0573 N   0  0
   -2.4556    5.1238   -2.1083 C   0  0
   -3.3387    4.4956   -2.9833 C   0  0
   -3.8998    5.1965   -4.0436 C   0  0
   -3.5896    6.5361   -4.2337 C   0  0
   -2.7216    7.1762   -3.3596 C   0  0
   -2.1581    6.4782   -2.2985 C   0  0
    1.1415    2.0593   -0.5026 C   0  0
    2.1692    2.9342   -0.8808 C   0  0
    3.2455    2.3845   -1.5817 C   0  0
    4.2569    3.1957   -1.9669 F   0  0
    2.3391   -0.8985   -1.7538 H   0  0
   -1.0014   -0.6437    2.3955 H   0  0
   -3.1283   -1.1831    3.5232 H   0  0
   -5.2478    1.2775    0.7175 H   0  0
   -3.1282    1.8134   -0.4197 H   0  0
   -1.5519    3.2336    1.2116 H   0  0
    1.2730    4.2633    1.5921 H   0  0
   -0.4462    5.9974    2.0807 H   0  0
   -1.3015    4.8832    3.1084 H   0  0
    1.4963    6.0170    3.5731 H   0  0
    0.0549    6.4261    4.4666 H   0  0
    1.5018    4.8001    5.7178 H   0  0
   -0.0875    4.1504    5.4037 H   0  0
    2.4646    3.5194    3.8456 H   0  0
    1.6022    2.4285    4.8987 H   0  0
   -0.3290    2.3765    3.3710 H   0  0
    1.1306    1.9683    2.5112 H   0  0
   -2.4665    3.4933   -0.8787 H   0  0
   -3.5935    3.4534   -2.8522 H   0  0
   -4.5789    4.6989   -4.7203 H   0  0
   -4.0269    7.0810   -5.0575 H   0  0
   -2.4872    8.2210   -3.5017 H   0  0
   -1.5044    7.0149   -1.6288 H   0  0
    2.1441    3.9886   -0.6500 H   0  0
  1  2  1  0
  2  3  1  0
  2 33  2  0
  3  4  2  0
  3 35  1  0
  4  5  1  0
  4 31  1  0
  5  6  2  0
  6  7  1  0
  6 14  1  0
  7  8  2  0
  7 13  1  0
  8  9  1  0
  8 36  1  0
  9 10  2  0
  9 37  1  0
 10 11  1  0
 10 12  1  0
 12 13  2  0
 12 38  1  0
 13 39  1  0
 14 15  1  0
 14 31  1  0
 15 16  1  0
 15 22  1  0
 15 40  1  0
 16 17  1  0
 16 21  1  0
 16 41  1  0
 17 18  1  0
 17 42  1  0
 17 43  1  0
 18 19  1  0
 18 44  1  0
 18 45  1  0
 19 20  1  0
 19 46  1  0
 19 47  1  0
 20 21  1  0
 20 48  1  0
 20 49  1  0
 21 50  1  0
 21 51  1  0
 22 23  2  0
 22 24  1  0
 24 25  1  0
 24 52  1  0
 25 26  2  0
 25 30  1  0
 26 27  1  0
 26 53  1  0
 27 28  2  0
 27 54  1  0
 28 29  1  0
 28 55  1  0
 29 30  2  0
 29 56  1  0
 30 57  1  0
 31 32  2  0
 32 33  1  0
 32 58  1  0
 33 34  1  0
M  END
> <Name>
ligand_110

> <activity>
1

$$$$
ligand_111
  SciTegic10272118463D

 61 65  0  0  1  0            999 V2000
   -2.5214    9.5229    0.3631 C   0  0
   -3.5371    8.3774    0.4061 C   0  0
   -2.8460    7.1348    0.4022 O   0  0
   -3.5218    5.9577    0.4363 C   0  0
   -4.7536    5.8814    0.4705 O   0  0
   -2.6211    4.7564    0.4247 C   0  0
   -3.1894    3.4754    0.4414 C   0  0
   -2.3819    2.3418    0.4315 C   0  0
   -0.9932    2.4683    0.3958 C   0  0
   -0.2607    1.2692    0.3984 N   0  0
    1.0049    1.0463   -0.0197 C   0  0
    1.7716    1.9029   -0.4614 O   0  0
    1.4413   -0.3282    0.1119 C   0  0
    2.7404   -0.7854    0.3317 C   0  0
    4.0667   -0.0640    0.5397 C   0  0
    5.0952   -0.9927    1.0830 N   0  0
    5.1384   -2.3415    0.4601 C   0  0
    3.8100   -3.1145    0.6352 C   0  0
    2.6355   -2.1869    0.3561 C   0  0
    1.4118   -2.5952    0.1319 N   0  0
    0.6829   -1.4828   -0.0525 N   0  0
   -0.6796   -1.6342   -0.4001 C   0  0
   -1.5301   -2.3919    0.4057 C   0  0
   -2.8707   -2.5282    0.0677 C   0  0
   -3.3668   -1.9145   -1.0755 C   0  0
   -2.5218   -1.1671   -1.8859 C   0  0
   -1.1803   -1.0291   -1.5531 C   0  0
    6.6388   -0.2702    1.5706 S   0  0
    6.3794    1.0072    2.2450 O   0  0
    7.4815   -1.3073    2.1772 O   0  0
    7.3562    0.1208   -0.0434 C   0  0
    7.2184    1.3286   -0.7174 C   0  0
    7.8691    1.3302   -1.9559 C   0  0
    8.4993    0.1233   -2.2292 C   0  0
    8.2893   -1.0296   -0.9500 S   0  0
   -0.4136    3.7442    0.3915 C   0  0
   -1.2227    4.8771    0.4025 C   0  0
   -3.0268   10.4887    0.3652 H   0  0
   -1.8570    9.4934    1.2273 H   0  0
   -1.9066    9.4712   -0.5360 H   0  0
   -4.1543    8.4584    1.3025 H   0  0
   -4.2037    8.4364   -0.4560 H   0  0
   -4.2624    3.3428    0.4627 H   0  0
   -2.8457    1.3654    0.4439 H   0  0
   -0.7829    0.4596    0.6985 H   0  0
    4.4296    0.3150   -0.4160 H   0  0
    3.9788    0.7944    1.2063 H   0  0
    5.3816   -2.2055   -0.5947 H   0  0
    5.9564   -2.9117    0.9010 H   0  0
    3.8039   -3.9929   -0.0109 H   0  0
    3.7418   -3.4880    1.6575 H   0  0
   -1.1560   -2.8716    1.2991 H   0  0
   -3.5283   -3.1121    0.6951 H   0  0
   -4.4096   -2.0215   -1.3363 H   0  0
   -2.9079   -0.6934   -2.7766 H   0  0
   -0.5331   -0.4465   -2.1935 H   0  0
    6.6682    2.1727   -0.3276 H   0  0
    7.8788    2.1768   -2.6266 H   0  0
    9.0670   -0.1389   -3.1098 H   0  0
    0.6566    3.8813    0.3939 H   0  0
   -0.7416    5.8448    0.3980 H   0  0
  1  2  1  0
  1 38  1  0
  1 39  1  0
  1 40  1  0
  2  3  1  0
  2 41  1  0
  2 42  1  0
  3  4  1  0
  4  5  2  0
  4  6  1  0
  6  7  2  0
  6 37  1  0
  7  8  1  0
  7 43  1  0
  8  9  2  0
  8 44  1  0
  9 10  1  0
  9 36  1  0
 10 11  1  0
 10 45  1  0
 11 12  2  0
 11 13  1  0
 13 14  2  0
 13 21  1  0
 14 15  1  0
 14 19  1  0
 15 16  1  0
 15 46  1  0
 15 47  1  0
 16 17  1  0
 16 28  1  0
 17 18  1  0
 17 48  1  0
 17 49  1  0
 18 19  1  0
 18 50  1  0
 18 51  1  0
 19 20  2  0
 20 21  1  0
 21 22  1  0
 22 23  2  0
 22 27  1  0
 23 24  1  0
 23 52  1  0
 24 25  2  0
 24 53  1  0
 25 26  1  0
 25 54  1  0
 26 27  2  0
 26 55  1  0
 27 56  1  0
 28 29  2  0
 28 30  2  0
 28 31  1  0
 31 32  2  0
 31 35  1  0
 32 33  1  0
 32 57  1  0
 33 34  2  0
 33 58  1  0
 34 35  1  0
 34 59  1  0
 36 37  2  0
 36 60  1  0
 37 61  1  0
M  END
> <Name>
ligand_111

> <activity>
1

$$$$
ligand_112
  SciTegic10272118463D

 88 91  0  0  1  0            999 V2000
   -2.5553   -6.4029    2.8347 C   0  0
   -3.3227   -7.0561    3.7617 O   0  0
   -1.1859   -6.2817    3.0266 C   0  0
   -0.4118   -5.6191    2.0791 C   0  0
   -3.1412   -5.8528    1.6991 C   0  0
   -2.3785   -5.1768    0.7386 C   0  0
   -3.0829   -4.5906   -0.4876 C   0  0
   -2.2751   -3.4676   -1.1812 C   0  0  2  0  0  0
   -0.8508   -4.0344   -1.4394 C   0  0  1  0  0  0
    0.0654   -3.2343   -2.3991 C   0  0  2  0  0  0
   -0.4621   -2.7411   -3.7521 C   0  0
    0.8176   -2.4009   -4.5444 C   0  0
    2.0107   -2.9456   -3.7206 C   0  0  2  0  0  0
    3.0754   -3.4184   -4.5249 O   0  0
    1.3770   -3.9804   -2.7520 C   0  0  2  0  0  0
    1.1601   -5.3439   -3.4864 C   0  0
    2.1540   -4.2176   -1.4313 C   0  0
    1.3051   -4.9745   -0.3740 C   0  0
   -0.0889   -4.3257   -0.1068 C   0  0  2  0  0  0
   -0.9748   -5.0693    0.9161 C   0  0
   -2.3778   -2.1330   -0.3798 C   0  0
   -2.1238   -0.8398   -1.1803 C   0  0
   -2.4311    0.4337   -0.3717 C   0  0
   -2.1722    1.7257   -1.1673 C   0  0
   -2.4791    2.9994   -0.3595 C   0  0
   -2.2202    4.2914   -1.1552 C   0  0
   -2.5270    5.5651   -0.3474 C   0  0
   -2.2677    6.8563   -1.1433 C   0  0
   -2.5736    8.1268   -0.3340 C   0  0
   -2.2360    9.6328   -1.3648 S   0  0  1  0  0  0
   -2.6065   10.9028   -0.0632 C   0  0
   -0.7289    9.6764   -1.6230 O   0  0
   -2.3332   12.3125   -0.6115 C   0  0
   -2.6189   13.4210    0.4219 C   0  0
   -2.3558   14.8543   -0.0996 C   0  0
   -2.6561   15.9286    0.9727 C   0  0
   -1.0844   14.9605   -0.4927 F   0  0
   -3.1064   15.0813   -1.1801 F   0  0
   -3.9278   15.8787    1.3731 F   0  0
   -1.9039   15.7577    2.0613 F   0  0
   -2.4269   17.1603    0.5150 F   0  0
   -4.2533   -7.0791    3.5291 H   0  0
   -0.7206   -6.6971    3.9086 H   0  0
    0.6471   -5.5327    2.2671 H   0  0
   -4.2083   -5.9460    1.5576 H   0  0
   -3.2613   -5.4033   -1.1936 H   0  0
   -4.0746   -4.2247   -0.2162 H   0  0
   -2.7583   -3.3042   -2.1459 H   0  0
   -1.0190   -4.9940   -1.9290 H   0  0
    0.3533   -2.3394   -1.8439 H   0  0
   -1.0259   -3.5293   -4.2531 H   0  0
   -1.1241   -1.8808   -3.6585 H   0  0
    0.7699   -2.8627   -5.5322 H   0  0
    0.9180   -1.3259   -4.7000 H   0  0
    2.3988   -2.1149   -3.1269 H   0  0
    3.7680   -3.7495   -3.9486 H   0  0
    2.1142   -5.8066   -3.7406 H   0  0
    0.6191   -6.0745   -2.8880 H   0  0
    0.6091   -5.2305   -4.4199 H   0  0
    3.0779   -4.7640   -1.6264 H   0  0
    2.4632   -3.2603   -1.0080 H   0  0
    1.1688   -6.0112   -0.6829 H   0  0
    1.8877   -5.0169    0.5458 H   0  0
    0.1316   -3.3641    0.3587 H   0  0
   -3.3913   -2.0535    0.0169 H   0  0
   -1.7399   -2.1558    0.5031 H   0  0
   -1.0889   -0.7922   -1.5092 H   0  0
   -2.7364   -0.8462   -2.0830 H   0  0
   -3.4718    0.4138   -0.0443 H   0  0
   -1.8252    0.4402    0.5359 H   0  0
   -1.1313    1.7468   -1.4943 H   0  0
   -2.7774    1.7186   -2.0754 H   0  0
   -3.5200    2.9784   -0.0326 H   0  0
   -1.8738    3.0063    0.5485 H   0  0
   -1.1792    4.3123   -1.4821 H   0  0
   -2.8252    4.2843   -2.0633 H   0  0
   -3.5679    5.5442   -0.0205 H   0  0
   -1.9215    5.5721    0.5604 H   0  0
   -1.2265    6.8778   -1.4696 H   0  0
   -2.8730    6.8506   -2.0512 H   0  0
   -3.6168    8.1425   -0.0166 H   0  0
   -1.9540    8.1673    0.5625 H   0  0
   -3.6480   10.8004    0.2433 H   0  0
   -1.9832   10.7039    0.8094 H   0  0
   -1.2934   12.3763   -0.9369 H   0  0
   -2.9423   12.4769   -1.5019 H   0  0
   -3.6570   13.3413    0.7485 H   0  0
   -2.0093   13.2427    1.3092 H   0  0
  1  2  1  0
  1  3  2  0
  1  5  1  0
  2 42  1  0
  3  4  1  0
  3 43  1  0
  4 20  2  0
  4 44  1  0
  5  6  2  0
  5 45  1  0
  6  7  1  0
  6 20  1  0
  7  8  1  0
  7 46  1  0
  7 47  1  0
  8  9  1  0
  8 21  1  0
  8 48  1  0
  9 10  1  0
  9 19  1  0
  9 49  1  0
 10 11  1  0
 10 15  1  0
 10 50  1  0
 11 12  1  0
 11 51  1  0
 11 52  1  0
 12 13  1  0
 12 53  1  0
 12 54  1  0
 13 14  1  0
 13 15  1  0
 13 55  1  0
 14 56  1  0
 15 16  1  0
 15 17  1  0
 16 57  1  0
 16 58  1  0
 16 59  1  0
 17 18  1  0
 17 60  1  0
 17 61  1  0
 18 19  1  0
 18 62  1  0
 18 63  1  0
 19 20  1  0
 19 64  1  0
 21 22  1  0
 21 65  1  0
 21 66  1  0
 22 23  1  0
 22 67  1  0
 22 68  1  0
 23 24  1  0
 23 69  1  0
 23 70  1  0
 24 25  1  0
 24 71  1  0
 24 72  1  0
 25 26  1  0
 25 73  1  0
 25 74  1  0
 26 27  1  0
 26 75  1  0
 26 76  1  0
 27 28  1  0
 27 77  1  0
 27 78  1  0
 28 29  1  0
 28 79  1  0
 28 80  1  0
 29 30  1  0
 29 81  1  0
 29 82  1  0
 30 31  1  0
 30 32  2  0
 31 33  1  0
 31 83  1  0
 31 84  1  0
 33 34  1  0
 33 85  1  0
 33 86  1  0
 34 35  1  0
 34 87  1  0
 34 88  1  0
 35 36  1  0
 35 37  1  0
 35 38  1  0
 36 39  1  0
 36 40  1  0
 36 41  1  0
M  END
> <Name>
ligand_112

> <activity>
1

$$$$
ligand_113
  SciTegic10272118463D

 69 73  0  0  1  0            999 V2000
   16.6674  -19.9670   -1.6107 C   0  0  2  0  0  0
   16.1235  -18.6632   -0.9699 C   0  0
   15.5526  -18.8338    0.4544 C   0  0
   14.5444  -20.0038    0.5558 C   0  0  1  0  0  0
   15.1472  -21.3113    0.0050 C   0  0
   15.6880  -21.1528   -1.4304 C   0  0
   14.1146  -20.2491    1.8930 O   0  0
   13.2637  -19.2558    2.4694 C   0  0
   12.8115  -19.7150    3.8662 C   0  0
   13.2038  -20.8203    4.3057 O   0  5
   12.0592  -18.9306    4.4860 O   0  0
   24.0235  -22.2687    3.0211 C   0  0
   23.7997  -20.9701    2.5595 C   0  0
   22.7671  -20.6740    1.6662 C   0  0
   23.2192  -23.3297    2.6066 C   0  0
   22.1760  -23.0603    1.7106 C   0  0
   21.9590  -21.7408    1.2472 C   0  0
   20.8735  -21.8410    0.3860 N   0  0
   20.5015  -23.1878    0.4089 C   0  0
   21.2705  -23.9246    1.1719 N   0  0
   20.3081  -20.7061   -0.3876 C   0  0  2  0  0  0
   18.7720  -20.5254   -0.2864 C   0  0
   20.9623  -20.5478   -1.8082 C   0  0
   18.0950  -20.2525   -1.4179 N   0  0
   18.2382  -20.6026    0.8180 O   0  0
   22.4623  -20.1540   -1.7517 C   0  0
   23.0537  -19.8961   -3.1529 C   0  0
   22.8294  -21.0896   -4.1009 C   0  0
   21.3459  -21.5010   -4.1600 C   0  0
   20.7718  -21.7600   -2.7534 C   0  0
   25.0365  -22.5065    3.8852 F   0  0
   24.6023  -19.9681    2.9852 F   0  0
   19.3604  -23.8199   -0.3109 C   0  0
   18.0617  -23.7236    0.1930 C   0  0
   16.9985  -24.3186   -0.3975 N   0  0
   17.2226  -25.0416   -1.5220 C   0  0
   18.4916  -25.2136   -2.0745 C   0  0
   19.5756  -24.6036   -1.4481 C   0  0
   15.8700  -25.7850   -2.2924 Cl  0  0
   16.6785  -19.7708   -2.6843 H   0  0
   16.8903  -17.8872   -0.9760 H   0  0
   15.3213  -18.2816   -1.6038 H   0  0
   16.3595  -18.9841    1.1697 H   0  0
   15.0743  -17.8997    0.7480 H   0  0
   13.6525  -19.7703   -0.0302 H   0  0
   15.9387  -21.6559    0.6682 H   0  0
   14.3918  -22.0980    0.0210 H   0  0
   14.8346  -20.9984   -2.0927 H   0  0
   16.1496  -22.0802   -1.7695 H   0  0
   13.7849  -18.3031    2.5679 H   0  0
   12.3823  -19.0957    1.8459 H   0  0
   22.6129  -19.6622    1.3228 H   0  0
   23.3986  -24.3310    2.9692 H   0  0
   20.6226  -19.8141    0.1560 H   0  0
   20.4755  -19.6969   -2.2895 H   0  0
   18.6406  -20.2308   -2.2665 H   0  0
   22.5953  -19.2618   -1.1385 H   0  0
   23.0364  -20.9460   -1.2692 H   0  0
   22.5941  -19.0036   -3.5806 H   0  0
   24.1197  -19.6794   -3.0734 H   0  0
   23.1900  -20.8456   -5.1009 H   0  0
   23.4261  -21.9375   -3.7609 H   0  0
   20.7686  -20.7151   -4.6495 H   0  0
   21.2321  -22.3922   -4.7784 H   0  0
   21.2829  -22.6241   -2.3314 H   0  0
   19.7176  -22.0263   -2.8343 H   0  0
   17.8555  -23.1702    1.0977 H   0  0
   18.6340  -25.8115   -2.9625 H   0  0
   20.5716  -24.7419   -1.8425 H   0  0
  1  2  1  0
  1  6  1  0
  1 24  1  0
  1 40  1  0
  2  3  1  0
  2 41  1  0
  2 42  1  0
  3  4  1  0
  3 43  1  0
  3 44  1  0
  4  5  1  0
  4  7  1  0
  4 45  1  0
  5  6  1  0
  5 46  1  0
  5 47  1  0
  6 48  1  0
  6 49  1  0
  7  8  1  0
  8  9  1  0
  8 50  1  0
  8 51  1  0
  9 10  1  0
  9 11  2  0
 12 13  2  0
 12 15  1  0
 12 31  1  0
 13 14  1  0
 13 32  1  0
 14 17  2  0
 14 52  1  0
 15 16  2  0
 15 53  1  0
 16 17  1  0
 16 20  1  0
 17 18  1  0
 18 19  1  0
 18 21  1  0
 19 20  2  0
 19 33  1  0
 21 22  1  0
 21 23  1  0
 21 54  1  0
 22 24  1  0
 22 25  2  0
 23 26  1  0
 23 30  1  0
 23 55  1  0
 24 56  1  0
 26 27  1  0
 26 57  1  0
 26 58  1  0
 27 28  1  0
 27 59  1  0
 27 60  1  0
 28 29  1  0
 28 61  1  0
 28 62  1  0
 29 30  1  0
 29 63  1  0
 29 64  1  0
 30 65  1  0
 30 66  1  0
 33 34  2  0
 33 38  1  0
 34 35  1  0
 34 67  1  0
 35 36  2  0
 36 37  1  0
 36 39  1  0
 37 38  2  0
 37 68  1  0
 38 69  1  0
M  CHG  1  10  -1
M  END
> <Name>
ligand_113

> <activity>
1

$$$$
ligand_114
  SciTegic10272118463D

 58 62  0  0  1  0            999 V2000
   -5.4554    5.1491    3.1474 O   0  5
   -4.5947    4.6652    3.9177 C   0  0
   -4.7515    4.5031    5.1481 O   0  0
   -3.2360    4.2276    3.3464 C   0  0
   -3.2134    4.4759    1.9381 O   0  0
   -2.0826    4.1546    1.2128 C   0  0
   -2.1262    4.4213   -0.1561 C   0  0
   -1.0348    4.1312   -0.9697 C   0  0
    0.1121    3.5596   -0.4173 C   0  0
    1.3156    3.2562   -1.2994 C   0  0
    1.5662    1.8196   -1.4780 N   0  0
    2.5780    1.1962   -0.8226 C   0  0
    3.3970    1.7009   -0.0511 O   0  0
    2.5160   -0.2993   -1.2190 C   0  0
    2.3225   -1.1952    0.0400 C   0  0
    3.5939   -1.3439    0.9032 C   0  0
    4.7873   -1.7149    0.0986 N   0  0
    5.0467   -0.8668   -1.0940 C   0  0
    3.8007   -0.7164   -1.9927 C   0  0
    6.2157   -2.2308    1.0152 S   0  0
    5.7914   -3.1121    2.1093 O   0  0
    7.2706   -2.6233    0.0733 O   0  0
    6.7274   -0.6659    1.7672 C   0  0
    6.2696   -0.1651    2.9803 C   0  0
    6.8250    1.0804    3.2920 C   0  0
    7.7037    1.5320    2.3163 C   0  0
    7.8497    0.4137    0.9982 S   0  0
    1.3058   -0.3449   -2.1086 C   0  0
    0.6890   -1.4042   -2.7744 C   0  0
   -0.4474   -1.1569   -3.5449 C   0  0
   -1.2964   -2.5955   -4.4568 Br  0  0
   -0.9682    0.1333   -3.6551 C   0  0
   -0.3493    1.1895   -2.9901 C   0  0
    0.7862    0.9310   -2.2202 C   0  0
    0.1715    3.3011    0.9532 C   0  0
   -0.9212    3.5920    1.7654 C   0  0
   -3.0960    3.1651    3.5533 H   0  0
   -2.4481    4.7906    3.8499 H   0  0
   -3.0139    4.8590   -0.5888 H   0  0
   -1.0856    4.3507   -2.0262 H   0  0
    2.1810    3.7513   -0.8548 H   0  0
    1.1737    3.7105   -2.2808 H   0  0
    1.4983   -0.8328    0.6578 H   0  0
    2.0197   -2.1937   -0.2798 H   0  0
    3.8216   -0.4144    1.4253 H   0  0
    3.4446   -2.1035    1.6710 H   0  0
    5.3919    0.1053   -0.7413 H   0  0
    5.8709   -1.3047   -1.6577 H   0  0
    3.6234   -1.6765   -2.4805 H   0  0
    4.0148   -0.0198   -2.8056 H   0  0
    5.5606   -0.6806    3.6116 H   0  0
    6.5938    1.6313    4.1918 H   0  0
    8.2621    2.4565    2.3096 H   0  0
    1.0776   -2.4093   -2.7008 H   0  0
   -1.8481    0.3142   -4.2548 H   0  0
   -0.7550    2.1853   -3.0828 H   0  0
    1.0616    2.8709    1.3894 H   0  0
   -0.8489    3.3760    2.8203 H   0  0
  1  2  1  0
  2  3  2  0
  2  4  1  0
  4  5  1  0
  4 37  1  0
  4 38  1  0
  5  6  1  0
  6  7  2  0
  6 36  1  0
  7  8  1  0
  7 39  1  0
  8  9  2  0
  8 40  1  0
  9 10  1  0
  9 35  1  0
 10 11  1  0
 10 41  1  0
 10 42  1  0
 11 12  1  0
 11 34  1  0
 12 13  2  0
 12 14  1  0
 14 15  1  0
 14 19  1  0
 14 28  1  0
 15 16  1  0
 15 43  1  0
 15 44  1  0
 16 17  1  0
 16 45  1  0
 16 46  1  0
 17 18  1  0
 17 20  1  0
 18 19  1  0
 18 47  1  0
 18 48  1  0
 19 49  1  0
 19 50  1  0
 20 21  2  0
 20 22  2  0
 20 23  1  0
 23 24  2  0
 23 27  1  0
 24 25  1  0
 24 51  1  0
 25 26  2  0
 25 52  1  0
 26 27  1  0
 26 53  1  0
 28 29  2  0
 28 34  1  0
 29 30  1  0
 29 54  1  0
 30 31  1  0
 30 32  2  0
 32 33  1  0
 32 55  1  0
 33 34  2  0
 33 56  1  0
 35 36  2  0
 35 57  1  0
 36 58  1  0
M  CHG  1   1  -1
M  END
> <Name>
ligand_114

> <activity>
1

$$$$
ligand_115
  SciTegic10272118463D

 63 67  0  0  1  0            999 V2000
    0.4770    2.5366    0.6446 C   0  0
    0.3665    3.3575    1.8105 C   0  0
    1.4212    3.0299    2.6424 N   0  0
    2.1706    2.0497    2.0396 C   0  0
    1.6446    1.6999    0.8066 C   0  0
    2.1795    0.6923   -0.1150 C   0  0
    1.5654    0.5130   -1.1900 O   0  5
    3.2138    0.0859    0.2449 O   0  0
    1.7004    3.6203    3.9419 C   0  0
   -1.5169    3.6145   -0.1940 C   0  0
   -1.6095    4.4159    0.9461 C   0  0
   -0.6663    4.2902    1.9729 C   0  0
   -0.4943    2.6846   -0.3605 C   0  0
   -2.7278    5.3928    1.0740 C   0  0
   -3.6017    7.6348    1.3850 C   0  0
   -4.9142    7.1453    1.3293 C   0  0
   -5.1213    5.7823    1.1397 C   0  0
   -4.0415    4.9163    1.0120 C   0  0
   -2.5100    6.7732    1.2529 C   0  0
   -1.1082    7.3711    1.2893 C   0  0
   -6.0466    7.9271    1.4476 O   0  0
   -5.9150    9.3351    1.6127 C   0  0
   -7.2987    9.9437    1.6883 C   0  0
   -9.3351   10.7300    1.1931 O   0  0
   -9.1561   10.9113    2.5596 N   0  0
   -7.9583   10.4413    2.8218 C   0  0
   -8.2231   10.1543    0.6701 C   0  0
   -8.2865    9.8777   -0.8235 C   0  0  2  0  0  0
   -9.3169    8.4469   -1.0887 Cl  0  0
   -6.9250    9.6513   -1.4991 C   0  0
   -7.4155   10.4552    4.1795 C   0  0
   -6.7557   11.5569    4.6239 C   0  0
   -6.2205   11.5032    5.9704 C   0  0
   -6.3809   10.3887    6.7135 C   0  0
   -7.0801    9.2018    6.2322 C   0  0
   -7.5833    9.2978    4.9457 N   0  0
   -7.1783    8.2182    6.9693 O   0  0
   -6.5129   13.0124    3.6435 Cl  0  0
   -8.2903    8.1023    4.4445 C   0  0
    3.0443    1.6647    2.5462 H   0  0
    1.8544    4.6935    3.8248 H   0  0
    0.8536    3.4462    4.6065 H   0  0
    2.5957    3.1758    4.3788 H   0  0
   -2.2532    3.7171   -0.9784 H   0  0
   -0.7380    4.8947    2.8654 H   0  0
   -0.4560    2.0870   -1.2592 H   0  0
   -3.4148    8.6883    1.5263 H   0  0
   -6.1273    5.3917    1.0932 H   0  0
   -4.2294    3.8613    0.8725 H   0  0
   -0.4566    6.8949    0.5560 H   0  0
   -1.1195    8.4383    1.0642 H   0  0
   -0.6672    7.2432    2.2779 H   0  0
   -5.3515    9.5463    2.5232 H   0  0
   -5.3420    9.7754    0.7962 H   0  0
   -8.7799   10.7096   -1.3278 H   0  0
   -7.0438    9.5188   -2.5750 H   0  0
   -6.2604   10.5025   -1.3487 H   0  0
   -6.4278    8.7586   -1.1191 H   0  0
   -5.6951   12.3549    6.3779 H   0  0
   -5.9771   10.3623    7.7152 H   0  0
   -7.7608    7.6931    3.5836 H   0  0
   -8.4000    7.2942    5.1691 H   0  0
   -9.2945    8.3755    4.1191 H   0  0
  1  2  1  0
  1  5  1  0
  1 13  2  0
  2  3  1  0
  2 12  2  0
  3  4  1  0
  3  9  1  0
  4  5  2  0
  4 40  1  0
  5  6  1  0
  6  7  1  0
  6  8  2  0
  9 41  1  0
  9 42  1  0
  9 43  1  0
 10 11  2  0
 10 13  1  0
 10 44  1  0
 11 12  1  0
 11 14  1  0
 12 45  1  0
 13 46  1  0
 14 18  2  0
 14 19  1  0
 15 16  1  0
 15 19  2  0
 15 47  1  0
 16 17  2  0
 16 21  1  0
 17 18  1  0
 17 48  1  0
 18 49  1  0
 19 20  1  0
 20 50  1  0
 20 51  1  0
 20 52  1  0
 21 22  1  0
 22 23  1  0
 22 53  1  0
 22 54  1  0
 23 26  1  0
 23 27  2  0
 24 25  1  0
 24 27  1  0
 25 26  2  0
 26 31  1  0
 27 28  1  0
 28 29  1  0
 28 30  1  0
 28 55  1  0
 30 56  1  0
 30 57  1  0
 30 58  1  0
 31 32  2  0
 31 36  1  0
 32 33  1  0
 32 38  1  0
 33 34  2  0
 33 59  1  0
 34 35  1  0
 34 60  1  0
 35 36  1  0
 35 37  2  0
 36 39  1  0
 39 61  1  0
 39 62  1  0
 39 63  1  0
M  CHG  1   7  -1
M  END
> <Name>
ligand_115

> <activity>
1

$$$$
ligand_116
  SciTegic10272118463D

 63 66  0  0  1  0            999 V2000
    0.2755    0.5088   -4.4665 C   0  0
   -0.6735   -0.4115   -4.0220 C   0  0
   -0.7580   -0.7989   -2.6825 C   0  0
    1.1888    1.0876   -3.5854 C   0  0
    1.1284    0.7198   -2.2338 C   0  0
    0.1589   -0.2171   -1.7961 C   0  0
    0.3837   -0.3389   -0.4330 N   0  0
    1.4448    0.5154   -0.1448 C   0  0
    1.9052    1.1475   -1.1956 N   0  0
   -0.3792   -1.2039    0.4894 C   0  0  1  0  0  0
    0.5211   -2.1742    1.2921 C   0  0
    0.5376   -2.0622    2.6345 N   0  0
    1.2131   -2.9924    0.6846 O   0  0
   -1.4258   -0.4005    1.3269 C   0  0
   -2.4877    0.4028    0.5196 C   0  0  1  0  0  0
   -3.8633    0.3859    1.2348 C   0  0
   -5.0248    0.9764    0.4174 C   0  0
   -2.0233    1.8488    0.2319 C   0  0
    1.3595   -2.8481    3.5565 C   0  0
    2.0457    0.7146    1.2011 C   0  0
    1.4605    1.5961    2.1125 C   0  0
    2.0250    1.7648    3.3740 C   0  0
    3.1767    1.0578    3.7163 C   0  0
    3.7716    0.1870    2.8050 C   0  0
    3.2077    0.0184    1.5435 C   0  0
    1.4497   -2.1928    4.9540 C   0  0
    2.3545   -2.9806    5.9217 C   0  0
    1.9239   -4.4549    6.0327 C   0  0
    1.8387   -5.1268    4.6495 C   0  0
    0.9391   -4.3353    3.6786 C   0  0
    3.8673    1.2546    5.2854 Cl  0  0
    0.3032    0.7778   -5.5125 H   0  0
   -1.3635   -0.8375   -4.7358 H   0  0
   -1.5010   -1.5126   -2.3592 H   0  0
    1.9206    1.7997   -3.9373 H   0  0
   -0.9608   -1.8815   -0.1371 H   0  0
   -0.0606   -1.3701    3.0602 H   0  0
   -1.9512   -1.1288    1.9477 H   0  0
   -0.9336    0.2571    2.0431 H   0  0
   -2.6288   -0.1006   -0.4381 H   0  0
   -4.1288   -0.6441    1.4781 H   0  0
   -3.7911    0.9078    2.1904 H   0  0
   -5.9711    0.8473    0.9435 H   0  0
   -4.8974    2.0447    0.2434 H   0  0
   -5.1178    0.4853   -0.5517 H   0  0
   -2.7197    2.3719   -0.4229 H   0  0
   -1.9374    2.4279    1.1519 H   0  0
   -1.0558    1.8844   -0.2636 H   0  0
    2.3685   -2.8227    3.1362 H   0  0
    0.5704    2.1469    1.8457 H   0  0
    1.5699    2.4408    4.0830 H   0  0
    4.6635   -0.3591    3.0749 H   0  0
    3.6641   -0.6613    0.8382 H   0  0
    1.8200   -1.1714    4.8658 H   0  0
    0.4494   -2.1112    5.3828 H   0  0
    3.3877   -2.9286    5.5743 H   0  0
    2.3421   -2.5132    6.9072 H   0  0
    2.6202   -5.0004    6.6709 H   0  0
    0.9514   -4.5125    6.5241 H   0  0
    2.8409   -5.2103    4.2259 H   0  0
    1.4675   -6.1472    4.7534 H   0  0
   -0.0966   -4.3922    4.0173 H   0  0
    0.9604   -4.8166    2.7001 H   0  0
  1  2  2  0
  1  4  1  0
  1 32  1  0
  2  3  1  0
  2 33  1  0
  3  6  2  0
  3 34  1  0
  4  5  2  0
  4 35  1  0
  5  6  1  0
  5  9  1  0
  6  7  1  0
  7  8  1  0
  7 10  1  0
  8  9  2  0
  8 20  1  0
 10 11  1  0
 10 14  1  0
 10 36  1  0
 11 12  1  0
 11 13  2  0
 12 19  1  0
 12 37  1  0
 14 15  1  0
 14 38  1  0
 14 39  1  0
 15 16  1  0
 15 18  1  0
 15 40  1  0
 16 17  1  0
 16 41  1  0
 16 42  1  0
 17 43  1  0
 17 44  1  0
 17 45  1  0
 18 46  1  0
 18 47  1  0
 18 48  1  0
 19 26  1  0
 19 30  1  0
 19 49  1  0
 20 21  2  0
 20 25  1  0
 21 22  1  0
 21 50  1  0
 22 23  2  0
 22 51  1  0
 23 24  1  0
 23 31  1  0
 24 25  2  0
 24 52  1  0
 25 53  1  0
 26 27  1  0
 26 54  1  0
 26 55  1  0
 27 28  1  0
 27 56  1  0
 27 57  1  0
 28 29  1  0
 28 58  1  0
 28 59  1  0
 29 30  1  0
 29 60  1  0
 29 61  1  0
 30 62  1  0
 30 63  1  0
M  END
> <Name>
ligand_116

> <activity>
1

$$$$
ligand_117
  SciTegic10272118463D

 68 73  0  0  1  0            999 V2000
    5.3404    0.8205   -1.2782 F   0  0
    4.1546    1.2952   -0.8332 C   0  0
    3.0227    0.4853   -0.9171 C   0  0
    1.8045    0.9977   -0.4511 C   0  0
    0.5750    0.4059   -0.4506 N   0  0
   -0.2292    1.2895    0.0868 C   0  0
   -1.6917    1.0292    0.2132 C   0  0
   -2.3430    1.0208    1.4508 C   0  0
   -3.7153    0.7745    1.5137 C   0  0
   -4.4179    0.5321    0.3217 C   0  0
   -3.7906    0.5253   -0.8887 N   0  0
   -2.4558    0.7648   -0.9275 C   0  0
   -5.8168    0.2742    0.3161 N   0  0
   -6.6225   -0.0235   -0.7639 C   0  0
   -7.9009   -0.1871   -0.2683 C   0  0
   -7.7760    0.0282    1.1038 C   0  0
   -6.5407    0.3029    1.4553 N   0  0
    0.4133    2.4662    0.4577 N   0  0
   -0.2047    3.6693    1.0558 C   0  0  1  0  0  0
    0.4492    4.0579    2.4297 C   0  0
   -0.3321    5.1734    3.1717 C   0  0
    0.2966    5.5038    4.5398 C   0  0
    0.4099    4.3273    5.3375 O   0  0
    1.2175    3.3072    4.7541 C   0  0
    0.6299    2.8628    3.4006 C   0  0
   -0.2689    4.8119    0.0172 C   0  0
    0.5267    5.7516    0.0612 O   0  0
   -1.2113    4.6897   -0.9363 N   0  0
   -1.4237    5.6074   -2.0563 C   0  0
   -0.3385    5.5087   -3.1589 C   0  0
   -0.5885    6.4825   -4.3279 C   0  0
   -2.0009    6.3190   -4.9188 C   0  0
   -3.0862    6.4385   -3.8330 C   0  0
   -2.8382    5.4634   -2.6644 C   0  0
    1.7452    2.3032    0.0958 C   0  0
    2.8814    3.1213    0.1682 C   0  0
    4.0819    2.5856   -0.3047 C   0  0
    5.2016    3.3424   -0.2492 F   0  0
    3.0864   -0.5081   -1.3357 H   0  0
   -1.7923    1.1986    2.3613 H   0  0
   -4.2113    0.7716    2.4734 H   0  0
   -1.9990    0.7487   -1.9068 H   0  0
   -6.2231   -0.0911   -1.7652 H   0  0
   -8.7977   -0.4280   -0.8199 H   0  0
   -8.5754   -0.0157    1.8292 H   0  0
   -1.2413    3.4220    1.2796 H   0  0
    1.4466    4.4535    2.2358 H   0  0
   -0.3757    6.0843    2.5743 H   0  0
   -1.3659    4.8595    3.3236 H   0  0
    1.2783    5.9643    4.4139 H   0  0
   -0.3208    6.2286    5.0712 H   0  0
    2.2421    3.6645    4.6342 H   0  0
    1.2612    2.4610    5.4402 H   0  0
   -0.3327    2.3853    3.5806 H   0  0
    1.2774    2.1003    2.9671 H   0  0
   -1.8119    3.8790   -0.9120 H   0  0
   -1.3713    6.6128   -1.6299 H   0  0
    0.6478    5.7026   -2.7352 H   0  0
   -0.3034    4.4872   -3.5415 H   0  0
   -0.4588    7.5079   -3.9779 H   0  0
    0.1608    6.3305   -5.1059 H   0  0
   -2.1684    7.0638   -5.6979 H   0  0
   -2.0802    5.3457   -5.4059 H   0  0
   -3.1072    7.4612   -3.4531 H   0  0
   -4.0697    6.2563   -4.2680 H   0  0
   -2.9807    4.4396   -3.0150 H   0  0
   -3.5933    5.6240   -1.8932 H   0  0
    2.8484    4.1260    0.5608 H   0  0
  1  2  1  0
  2  3  1  0
  2 37  2  0
  3  4  2  0
  3 39  1  0
  4  5  1  0
  4 35  1  0
  5  6  2  0
  6  7  1  0
  6 18  1  0
  7  8  2  0
  7 12  1  0
  8  9  1  0
  8 40  1  0
  9 10  2  0
  9 41  1  0
 10 11  1  0
 10 13  1  0
 11 12  2  0
 12 42  1  0
 13 14  1  0
 13 17  1  0
 14 15  2  0
 14 43  1  0
 15 16  1  0
 15 44  1  0
 16 17  2  0
 16 45  1  0
 18 19  1  0
 18 35  1  0
 19 20  1  0
 19 26  1  0
 19 46  1  0
 20 21  1  0
 20 25  1  0
 20 47  1  0
 21 22  1  0
 21 48  1  0
 21 49  1  0
 22 23  1  0
 22 50  1  0
 22 51  1  0
 23 24  1  0
 24 25  1  0
 24 52  1  0
 24 53  1  0
 25 54  1  0
 25 55  1  0
 26 27  2  0
 26 28  1  0
 28 29  1  0
 28 56  1  0
 29 30  1  0
 29 34  1  0
 29 57  1  0
 30 31  1  0
 30 58  1  0
 30 59  1  0
 31 32  1  0
 31 60  1  0
 31 61  1  0
 32 33  1  0
 32 62  1  0
 32 63  1  0
 33 34  1  0
 33 64  1  0
 33 65  1  0
 34 66  1  0
 34 67  1  0
 35 36  2  0
 36 37  1  0
 36 68  1  0
 37 38  1  0
M  END
> <Name>
ligand_117

> <activity>
1

$$$$
ligand_118
  SciTegic10272118463D

 55 58  0  0  1  0            999 V2000
   13.0439  -23.2125    0.9350 S   0  0
   11.9192  -22.5611    1.6166 O   0  0
   13.8823  -24.1654    1.6727 O   0  0
   14.4822  -19.8491   -0.9372 C   0  0
   13.6037  -20.8348   -0.4765 C   0  0
   14.1062  -21.8987    0.2991 C   0  0
   15.4760  -21.9548    0.5866 C   0  0
   16.3536  -20.9719    0.1053 C   0  0
   15.8426  -19.9137   -0.6461 C   0  0
   17.7358  -20.9570    0.3600 N   0  0
   18.5482  -21.9974    0.6462 C   0  0
   19.9204  -21.6169    0.8636 C   0  0
   18.2008  -23.1754    0.7423 O   0  0
   20.8008  -22.2491    1.7483 C   0  0
   21.9920  -21.7118    1.7479 N   0  0
   21.9442  -20.7452    0.8174 N   0  0
   20.7118  -20.6767    0.1811 C   0  0
   23.0974  -19.9546    0.6177 C   0  0
   24.3294  -20.5591    0.3628 C   0  0
   25.4623  -19.7782    0.1703 C   0  0
   25.3728  -18.3936    0.2354 C   0  0
   24.1504  -17.7876    0.4962 C   0  0
   23.0148  -18.5642    0.6894 C   0  0
   20.4106  -19.7268   -0.9791 C   0  0
   12.1268  -20.7062   -0.8276 C   0  0
   12.4065  -24.0446   -0.4996 N   0  0
   11.2040  -24.8829   -0.2775 C   0  0
   11.5876  -26.3027    0.1857 C   0  0
   12.5025  -26.8842   -0.7453 O   0  0
   13.7157  -26.1468   -0.9113 C   0  0
   13.4090  -24.7053   -1.3730 C   0  0
   19.9664  -18.5542   -0.5294 F   0  0
   21.4815  -19.4987   -1.7395 F   0  0
   19.4783  -20.2235   -1.7909 F   0  0
   14.1136  -19.0221   -1.5268 H   0  0
   15.8495  -22.7620    1.1968 H   0  0
   16.4972  -19.1379   -1.0176 H   0  0
   18.1781  -20.0552    0.2625 H   0  0
   20.5577  -23.0718    2.4060 H   0  0
   24.4117  -21.6355    0.3089 H   0  0
   26.4138  -20.2486   -0.0300 H   0  0
   26.2547  -17.7880    0.0859 H   0  0
   24.0831  -16.7109    0.5513 H   0  0
   22.0734  -18.0783    0.9012 H   0  0
   11.9416  -19.8696   -1.5025 H   0  0
   11.7590  -21.6028   -1.3242 H   0  0
   11.5322  -20.5344    0.0694 H   0  0
   10.5513  -24.3891    0.4426 H   0  0
   10.6526  -24.9259   -1.2174 H   0  0
   12.0490  -26.2789    1.1747 H   0  0
   10.7015  -26.9339    0.2544 H   0  0
   14.2647  -26.1508    0.0312 H   0  0
   14.3376  -26.6557   -1.6479 H   0  0
   13.0051  -24.7135   -2.3859 H   0  0
   14.3119  -24.0953   -1.4055 H   0  0
  1  2  2  0
  1  3  2  0
  1  6  1  0
  1 26  1  0
  4  5  2  0
  4  9  1  0
  4 35  1  0
  5  6  1  0
  5 25  1  0
  6  7  2  0
  7  8  1  0
  7 36  1  0
  8  9  2  0
  8 10  1  0
  9 37  1  0
 10 11  1  0
 10 38  1  0
 11 12  1  0
 11 13  2  0
 12 14  1  0
 12 17  2  0
 14 15  2  0
 14 39  1  0
 15 16  1  0
 16 17  1  0
 16 18  1  0
 17 24  1  0
 18 19  2  0
 18 23  1  0
 19 20  1  0
 19 40  1  0
 20 21  2  0
 20 41  1  0
 21 22  1  0
 21 42  1  0
 22 23  2  0
 22 43  1  0
 23 44  1  0
 24 32  1  0
 24 33  1  0
 24 34  1  0
 25 45  1  0
 25 46  1  0
 25 47  1  0
 26 27  1  0
 26 31  1  0
 27 28  1  0
 27 48  1  0
 27 49  1  0
 28 29  1  0
 28 50  1  0
 28 51  1  0
 29 30  1  0
 30 31  1  0
 30 52  1  0
 30 53  1  0
 31 54  1  0
 31 55  1  0
M  END
> <Name>
ligand_118

> <activity>
1

$$$$
ligand_119
  SciTegic10272118463D

 60 64  0  0  1  0            999 V2000
    1.0728    3.2163    0.1284 C   0  0
   -0.2500    2.6815    0.2264 C   0  0
   -0.1551    1.3169    0.0245 N   0  0
    1.1620    0.9933   -0.1906 C   0  0
    1.9716    2.1164   -0.1398 C   0  0
    3.4262    2.1511   -0.3231 C   0  0
    3.9894    3.2652   -0.2414 O   0  5
    3.9963    1.0596   -0.5480 O   0  0
   -1.2605    0.3719    0.0368 C   0  0
    0.1255    5.3987    0.5533 C   0  0
   -1.1604    4.8632    0.6543 C   0  0
   -1.3658    3.4892    0.4829 C   0  0
    1.2379    4.6019    0.2968 C   0  0
   -2.3167    5.7635    0.9265 C   0  0
   -4.2406    6.4612    2.2300 C   0  0
   -4.4871    7.5074    1.3303 C   0  0
   -3.6404    7.6763    0.2389 C   0  0
   -2.5671    6.8158    0.0397 C   0  0
   -3.1618    5.5941    2.0410 C   0  0
   -2.9276    4.4960    3.0721 C   0  0
   -5.5270    8.4090    1.4448 O   0  0
   -6.4310    8.3049    2.5400 C   0  0
   -7.4616    9.4091    2.4272 C   0  0
   -8.4836   11.4009    2.4351 O   0  0
   -9.4541   10.4510    2.1398 N   0  0
   -8.8305    9.2947    2.1276 C   0  0
   -7.2929   10.7772    2.6157 C   0  0
   -6.1289   11.6992    2.9420 C   0  0  2  0  0  0
   -5.5606   12.4500    1.4282 Cl  0  0
   -4.9446   11.0219    3.6495 C   0  0
   -9.5501    8.0601    1.8354 C   0  0
  -10.5862    7.6334    2.7742 C   0  0
  -11.2348    6.4867    2.5000 C   0  0
  -10.9762    5.7132    1.4026 N   0  0
  -10.0312    6.0335    0.4732 C   0  0
   -9.3000    7.2835    0.7372 C   0  0
   -8.0889    7.7505   -0.4730 Cl  0  0
   -9.8381    5.3031   -0.4969 O   0  0
    1.4314   -0.0382   -0.3684 H   0  0
   -1.7511    0.4035    1.0102 H   0  0
   -1.9768    0.6447   -0.7389 H   0  0
   -0.8994   -0.6405   -0.1494 H   0  0
    0.2716    6.4616    0.6832 H   0  0
   -2.3586    3.0675    0.5440 H   0  0
    2.2162    5.0546    0.2305 H   0  0
   -4.8794    6.3128    3.0873 H   0  0
   -3.8188    8.4796   -0.4609 H   0  0
   -1.9289    6.9641   -0.8196 H   0  0
   -1.8645    4.3685    3.2788 H   0  0
   -3.4145    4.7244    4.0210 H   0  0
   -3.3260    3.5474    2.7123 H   0  0
   -6.9111    7.3251    2.5285 H   0  0
   -5.9004    8.3703    3.4905 H   0  0
   -6.4775   12.5150    3.5769 H   0  0
   -4.1839   11.7554    3.9187 H   0  0
   -5.2603   10.5284    4.5691 H   0  0
   -4.4618   10.2800    3.0134 H   0  0
  -10.8259    8.2133    3.6542 H   0  0
  -12.0182    6.0689    3.1162 H   0  0
  -11.4862    4.8585    1.2345 H   0  0
  1  2  1  0
  1  5  1  0
  1 13  2  0
  2  3  1  0
  2 12  2  0
  3  4  1  0
  3  9  1  0
  4  5  2  0
  4 39  1  0
  5  6  1  0
  6  7  1  0
  6  8  2  0
  9 40  1  0
  9 41  1  0
  9 42  1  0
 10 11  2  0
 10 13  1  0
 10 43  1  0
 11 12  1  0
 11 14  1  0
 12 44  1  0
 13 45  1  0
 14 18  2  0
 14 19  1  0
 15 16  1  0
 15 19  2  0
 15 46  1  0
 16 17  2  0
 16 21  1  0
 17 18  1  0
 17 47  1  0
 18 48  1  0
 19 20  1  0
 20 49  1  0
 20 50  1  0
 20 51  1  0
 21 22  1  0
 22 23  1  0
 22 52  1  0
 22 53  1  0
 23 26  1  0
 23 27  2  0
 24 25  1  0
 24 27  1  0
 25 26  2  0
 26 31  1  0
 27 28  1  0
 28 29  1  0
 28 30  1  0
 28 54  1  0
 30 55  1  0
 30 56  1  0
 30 57  1  0
 31 32  1  0
 31 36  2  0
 32 33  2  0
 32 58  1  0
 33 34  1  0
 33 59  1  0
 34 35  1  0
 34 60  1  0
 35 36  1  0
 35 38  2  0
 36 37  1  0
M  CHG  1   7  -1
M  END
> <Name>
ligand_119

> <activity>
1

$$$$
ligand_120
  SciTegic10272118463D

 66 68  0  0  1  0            999 V2000
   31.9849  -10.2942    4.8199 C   0  0
   33.2161  -10.4044    5.7564 C   0  0
   30.7517  -10.7756    5.6381 C   0  0
   27.1600   -1.2185   -0.6261 C   0  0
   26.4394   -2.3710   -0.9634 C   0  0
   26.7988   -3.6240   -0.4654 C   0  0
   27.9059   -3.7486    0.3832 C   0  0
   28.6453   -2.5987    0.7009 C   0  0
   28.2962   -1.3325    0.1999 C   0  0
   25.9649   -4.8421   -0.8527 C   0  0
   24.8857   -5.1734    0.1876 C   0  0
   26.7166    0.0826   -1.2248 C   0  0
   26.1354    0.1711   -2.3068 O   0  0
   26.7857    1.3305   -0.3433 C   0  0
   29.0358   -0.1931    0.4707 O   0  0
   28.2084   -5.0129    0.8590 O   0  0
   29.3085   -5.1957    1.7452 C   0  0
   29.3898   -6.6813    2.1248 C   0  0
   30.5480   -6.9930    3.0895 C   0  0
   30.6293   -8.4829    3.4662 C   0  0
   31.7924   -8.7928    4.4367 C   0  0
   32.2314  -11.1557    3.5552 C   0  0
   31.4848  -12.1816    3.2002 N   0  0
   32.0341  -12.6557    2.0331 N   0  0
   33.1157  -11.8715    1.7352 N   0  0
   33.2243  -10.9205    2.7213 N   0  5
   30.1573   -0.2498    1.3468 C   0  0
   30.7241    1.1512    1.4993 C   0  0
   31.7849    1.5725    0.7008 C   0  0
   32.2971    2.8568    0.8391 C   0  0
   31.7510    3.7265    1.7743 C   0  0
   30.6913    3.3122    2.5710 C   0  0
   30.1785    2.0282    2.4338 C   0  0
   34.1250  -10.0370    5.2778 H   0  0
   33.0807   -9.8263    6.6717 H   0  0
   33.4024  -11.4386    6.0500 H   0  0
   29.8376  -10.7728    5.0441 H   0  0
   30.8881  -11.7944    6.0041 H   0  0
   30.5735  -10.1429    6.5086 H   0  0
   25.5769   -2.3008   -1.6129 H   0  0
   29.5077   -2.6939    1.3389 H   0  0
   25.4993   -4.6740   -1.8251 H   0  0
   26.6193   -5.7031   -0.9971 H   0  0
   24.3054   -6.0443   -0.1181 H   0  0
   25.3277   -5.3957    1.1596 H   0  0
   24.1920   -4.3420    0.3173 H   0  0
   26.0443    2.0649   -0.6590 H   0  0
   26.5833    1.0764    0.6972 H   0  0
   27.7727    1.7884   -0.4055 H   0  0
   29.1730   -4.5909    2.6440 H   0  0
   30.2369   -4.8850    1.2622 H   0  0
   29.5011   -7.2772    1.2175 H   0  0
   28.4456   -6.9875    2.5779 H   0  0
   30.4352   -6.3963    3.9962 H   0  0
   31.4906   -6.6838    2.6348 H   0  0
   30.7408   -9.0735    2.5558 H   0  0
   29.6826   -8.7870    3.9130 H   0  0
   31.6544   -8.2028    5.3446 H   0  0
   32.7163   -8.4182    3.9919 H   0  0
   29.8640   -0.6283    2.3282 H   0  0
   30.9241   -0.9181    0.9499 H   0  0
   32.2147    0.9053   -0.0323 H   0  0
   33.1197    3.1794    0.2179 H   0  0
   32.1491    4.7249    1.8809 H   0  0
   30.2648    3.9890    3.2968 H   0  0
   29.3514    1.7162    3.0552 H   0  0
  1  2  1  0
  1  3  1  0
  1 21  1  0
  1 22  1  0
  2 34  1  0
  2 35  1  0
  2 36  1  0
  3 37  1  0
  3 38  1  0
  3 39  1  0
  4  5  2  0
  4  9  1  0
  4 12  1  0
  5  6  1  0
  5 40  1  0
  6  7  2  0
  6 10  1  0
  7  8  1  0
  7 16  1  0
  8  9  2  0
  8 41  1  0
  9 15  1  0
 10 11  1  0
 10 42  1  0
 10 43  1  0
 11 44  1  0
 11 45  1  0
 11 46  1  0
 12 13  2  0
 12 14  1  0
 14 47  1  0
 14 48  1  0
 14 49  1  0
 15 27  1  0
 16 17  1  0
 17 18  1  0
 17 50  1  0
 17 51  1  0
 18 19  1  0
 18 52  1  0
 18 53  1  0
 19 20  1  0
 19 54  1  0
 19 55  1  0
 20 21  1  0
 20 56  1  0
 20 57  1  0
 21 58  1  0
 21 59  1  0
 22 23  2  0
 22 26  1  0
 23 24  1  0
 24 25  2  0
 25 26  1  0
 27 28  1  0
 27 60  1  0
 27 61  1  0
 28 29  2  0
 28 33  1  0
 29 30  1  0
 29 62  1  0
 30 31  2  0
 30 63  1  0
 31 32  1  0
 31 64  1  0
 32 33  2  0
 32 65  1  0
 33 66  1  0
M  CHG  1  26  -1
M  END
> <Name>
ligand_120

> <activity>
1

$$$$
ligand_121
  SciTegic10272118463D

 69 71  0  0  1  0            999 V2000
   12.4635  -11.1686    3.4949 C   0  0
   13.5940  -10.3395    4.1579 C   0  0
   12.1333  -12.3385    4.4667 C   0  0
    1.6530   -8.3549    0.2512 C   0  0
    1.8804   -9.6956   -0.0838 C   0  0
    3.1056  -10.3112    0.1753 C   0  0
    4.1417   -9.5836    0.7740 C   0  0
    3.9246   -8.2325    1.0859 C   0  0
    2.6966   -7.6006    0.8238 C   0  0
    3.2894  -11.7803   -0.1948 C   0  0
    3.0113  -12.7248    0.9830 C   0  0
    0.3141   -7.7687   -0.0829 C   0  0
   -0.3891   -8.1639   -1.0134 O   0  0
   -0.3037   -6.7916    0.9185 C   0  0
    2.4768   -6.2589    1.0880 O   0  0
    5.3308  -10.2480    1.0208 O   0  0
    6.4106   -9.5650    1.6505 C   0  0
    7.5794  -10.5465    1.8185 C   0  0
    8.8056   -9.9105    2.4975 C   0  0
    9.9769  -10.8952    2.6623 C   0  0
   11.2065  -10.2542    3.3464 C   0  0
   12.9463  -11.6665    2.1087 C   0  0
   13.0644  -12.9361    1.7772 N   0  0
   13.5088  -12.9417    0.4767 N   0  0
   13.6420  -11.6388    0.0784 N   0  0
   13.2787  -10.8410    1.1367 N   0  5
    3.4720   -5.4779    1.7422 C   0  0
    2.9177   -4.0829    1.9733 C   0  0
    3.2641   -3.0301    1.1233 C   0  0
    2.7549   -1.7495    1.3283 C   0  0
    1.8873   -1.5136    2.3910 C   0  0
    1.5303   -2.5608    3.2430 C   0  0
    2.0460   -3.8422    3.0363 C   0  0
    0.5852   -2.3055    4.4032 C   0  0
   13.8564   -9.4626    3.5643 H   0  0
   13.3055   -9.9812    5.1471 H   0  0
   14.5033  -10.9302    4.2787 H   0  0
   11.3712  -13.0055    4.0632 H   0  0
   13.0138  -12.9500    4.6695 H   0  0
   11.7676  -11.9735    5.4274 H   0  0
    1.0944  -10.2809   -0.5422 H   0  0
    4.7253   -7.6650    1.5294 H   0  0
    2.6355  -12.0327   -1.0311 H   0  0
    4.3019  -11.9399   -0.5687 H   0  0
    3.1472  -13.7653    0.6874 H   0  0
    3.6864  -12.5275    1.8166 H   0  0
    1.9890  -12.6144    1.3465 H   0  0
   -1.3915   -6.8044    0.8461 H   0  0
   -0.0328   -7.0655    1.9383 H   0  0
    0.0426   -5.7764    0.7258 H   0  0
    6.1001   -9.1884    2.6270 H   0  0
    6.7247   -8.7150    1.0417 H   0  0
    7.8653  -10.9339    0.8394 H   0  0
    7.2446  -11.4057    2.4016 H   0  0
    8.5180   -9.5236    3.4764 H   0  0
    9.1369   -9.0502    1.9135 H   0  0
   10.2587  -11.2788    1.6807 H   0  0
    9.6376  -11.7550    3.2400 H   0  0
   10.9064   -9.8897    4.3305 H   0  0
   11.4818   -9.3601    2.7838 H   0  0
    3.7399   -5.9183    2.7048 H   0  0
    4.3793   -5.4239    1.1373 H   0  0
    3.9339   -3.2028    0.2932 H   0  0
    3.0315   -0.9433    0.6649 H   0  0
    1.4939   -0.5199    2.5490 H   0  0
    1.7675   -4.6504    3.6977 H   0  0
   -0.0368   -3.1790    4.6031 H   0  0
    1.1527   -2.0767    5.3056 H   0  0
   -0.0799   -1.4661    4.1965 H   0  0
  1  2  1  0
  1  3  1  0
  1 21  1  0
  1 22  1  0
  2 35  1  0
  2 36  1  0
  2 37  1  0
  3 38  1  0
  3 39  1  0
  3 40  1  0
  4  5  2  0
  4  9  1  0
  4 12  1  0
  5  6  1  0
  5 41  1  0
  6  7  2  0
  6 10  1  0
  7  8  1  0
  7 16  1  0
  8  9  2  0
  8 42  1  0
  9 15  1  0
 10 11  1  0
 10 43  1  0
 10 44  1  0
 11 45  1  0
 11 46  1  0
 11 47  1  0
 12 13  2  0
 12 14  1  0
 14 48  1  0
 14 49  1  0
 14 50  1  0
 15 27  1  0
 16 17  1  0
 17 18  1  0
 17 51  1  0
 17 52  1  0
 18 19  1  0
 18 53  1  0
 18 54  1  0
 19 20  1  0
 19 55  1  0
 19 56  1  0
 20 21  1  0
 20 57  1  0
 20 58  1  0
 21 59  1  0
 21 60  1  0
 22 23  2  0
 22 26  1  0
 23 24  1  0
 24 25  2  0
 25 26  1  0
 27 28  1  0
 27 61  1  0
 27 62  1  0
 28 29  2  0
 28 33  1  0
 29 30  1  0
 29 63  1  0
 30 31  2  0
 30 64  1  0
 31 32  1  0
 31 65  1  0
 32 33  2  0
 32 34  1  0
 33 66  1  0
 34 67  1  0
 34 68  1  0
 34 69  1  0
M  CHG  1  26  -1
M  END
> <Name>
ligand_121

> <activity>
1

$$$$
ligand_122
  SciTegic10272118463D

 73 77  0  0  1  0            999 V2000
   20.3189   -2.4494    1.9481 C   0  0
   13.5873   -6.1852    1.9922 C   0  0
   18.6592   -7.6180   -0.5251 C   0  0
   18.9651   -5.7308    0.9604 C   0  0
   15.1404   -4.1373   -0.5030 C   0  0
   13.4185   -7.0419    0.7180 C   0  0
   14.1380   -6.3044   -2.2051 O   0  0
   19.3637   -6.4770   -0.1487 C   0  0
   17.1531   -7.2838    1.3494 C   0  0
   11.1714   -6.0163    0.4229 C   0  0
   17.8726   -2.6565    1.3934 C   0  0
   11.6962   -2.5723   -1.1590 C   0  0
   11.9055   -5.1300   -2.4380 O   0  0
   17.1423   -3.2791    0.4444 N   0  0
   13.8072   -4.0300   -0.9091 C   0  0
   17.4805   -1.7373    2.1138 O   0  0
   21.0064   -4.5529    1.5513 N   0  0
   19.7065   -4.4906    1.3397 C   0  0
   23.6035   -2.7608    1.0122 C   0  0
   17.5493   -8.0133    0.2352 C   0  0
   12.3142   -5.8811    2.5629 O   0  0
   11.4395   -5.1725    1.6849 C   0  0
   13.0499   -5.5205   -1.6073 S   0  0
   13.1415   -2.7982   -0.7365 C   0  0
   15.1405   -1.8409    0.2450 C   0  0
   21.3698   -3.3247    1.9382 N   0  0
   22.7652   -3.0484    2.2497 C   0  0
   17.8606   -6.1434    1.7062 C   0  0
   13.8179   -1.7169   -0.1635 C   0  0
   15.8042   -3.0609    0.0817 C   0  0
   12.4317   -6.4555   -0.2236 N   0  0
   19.2159   -3.1672    1.5088 C   0  0
   23.8470   -1.4457    0.6137 C   0  0
   24.6075   -1.1750   -0.5203 C   0  0
   25.1295   -2.2268   -1.2672 C   0  0
   24.8962   -3.5497   -0.8891 C   0  0
   24.1301   -3.8112    0.2586 C   0  0
   25.4501   -4.5261   -1.6946 O   0  0
   25.2321   -5.8965   -1.3763 C   0  0
   19.1175   -8.2859   -1.6441 O   0  0
   18.4210   -9.4423   -2.0959 C   0  0
   20.4513   -1.4168    2.2371 H   0  0
   14.1798   -6.7212    2.7334 H   0  0
   14.1080   -5.2520    1.7777 H   0  0
   15.6626   -5.0762   -0.6258 H   0  0
   14.3672   -7.1856    0.2011 H   0  0
   13.0611   -8.0378    0.9815 H   0  0
   20.2187   -6.1643   -0.7310 H   0  0
   16.3019   -7.6016    1.9324 H   0  0
   10.6133   -6.9152    0.6866 H   0  0
   10.5576   -5.4841   -0.3025 H   0  0
   11.6133   -2.5789   -2.2460 H   0  0
   11.0392   -3.3378   -0.7518 H   0  0
   11.3139   -1.6116   -0.8117 H   0  0
   17.5905   -4.0519   -0.0255 H   0  0
   16.9797   -8.8927   -0.0240 H   0  0
   11.8919   -4.2130    1.4317 H   0  0
   10.5061   -4.9638    2.2078 H   0  0
   15.6350   -0.9799    0.6682 H   0  0
   22.8064   -2.2069    2.9433 H   0  0
   23.1787   -3.9017    2.7910 H   0  0
   17.5459   -5.5749    2.5697 H   0  0
   13.3210   -0.7662   -0.0341 H   0  0
   23.4427   -0.6228    1.1853 H   0  0
   24.7904   -0.1536   -0.8202 H   0  0
   25.7181   -2.0153   -2.1479 H   0  0
   23.9300   -4.8242    0.5737 H   0  0
   25.7313   -6.5211   -2.1169 H   0  0
   25.6449   -6.1513   -0.3991 H   0  0
   24.1705   -6.1483   -1.3952 H   0  0
   18.9105   -9.8306   -2.9890 H   0  0
   18.4301  -10.2340   -1.3452 H   0  0
   17.3884   -9.2099   -2.3611 H   0  0
  1 26  1  0
  1 32  2  0
  1 42  1  0
  2  6  1  0
  2 21  1  0
  2 43  1  0
  2 44  1  0
  3  8  2  0
  3 20  1  0
  3 40  1  0
  4 18  1  0
  4  8  1  0
  4 28  2  0
  5 15  2  0
  5 30  1  0
  5 45  1  0
  6 31  1  0
  6 46  1  0
  6 47  1  0
  7 23  2  0
  8 48  1  0
  9 28  1  0
  9 20  2  0
  9 49  1  0
 10 22  1  0
 10 31  1  0
 10 50  1  0
 10 51  1  0
 11 16  2  0
 11 14  1  0
 11 32  1  0
 12 24  1  0
 12 52  1  0
 12 53  1  0
 12 54  1  0
 13 23  2  0
 14 30  1  0
 14 55  1  0
 15 24  1  0
 15 23  1  0
 17 18  2  0
 17 26  1  0
 18 32  1  0
 19 27  1  0
 19 33  1  0
 19 37  2  0
 20 56  1  0
 21 22  1  0
 22 57  1  0
 22 58  1  0
 23 31  1  0
 24 29  2  0
 25 29  1  0
 25 30  2  0
 25 59  1  0
 26 27  1  0
 27 60  1  0
 27 61  1  0
 28 62  1  0
 29 63  1  0
 33 34  2  0
 33 64  1  0
 34 35  1  0
 34 65  1  0
 35 36  2  0
 35 66  1  0
 36 37  1  0
 36 38  1  0
 37 67  1  0
 38 39  1  0
 39 68  1  0
 39 69  1  0
 39 70  1  0
 40 41  1  0
 41 71  1  0
 41 72  1  0
 41 73  1  0
M  END
> <Name>
ligand_122

> <activity>
1

$$$$
ligand_123
  SciTegic10272118463D

 66 70  0  0  1  0            999 V2000
    5.8341    0.8499   -4.7369 C   0  0
    5.3496   -0.2876   -4.0924 C   0  0
    5.4892   -0.4689   -2.7148 C   0  0
    6.4835    1.8686   -4.0380 C   0  0
    6.6245    1.6924   -2.6581 C   0  0
    6.1413    0.5466   -1.9985 C   0  0
    6.4471    0.6833   -0.6358 N   0  0
    7.0891    1.9023   -0.4621 C   0  0
    7.2023    2.4958   -1.6919 N   0  3
    6.1143   -0.3103    0.4096 C   0  0  1  0  0  0
    7.3810   -0.8112    1.1465 C   0  0
    7.5481   -0.4614    2.4363 N   0  0
    8.2056   -1.4839    0.5269 O   0  0
    7.6062    2.5070    0.7916 C   0  0
    8.9742    2.4502    1.0655 C   0  0
    9.4728    3.0189    2.2343 C   0  0
    8.6012    3.6481    3.1262 C   0  0
    7.2335    3.7127    2.8490 C   0  0
    6.7374    3.1454    1.6782 C   0  0
    9.1203    4.2324    4.3542 C   0  0
    9.5330    4.6959    5.3307 N   0  0
    8.6729   -0.8345    3.2959 C   0  0
    4.9032    0.1422    1.3058 C   0  0
    8.7247    0.0204    4.5833 C   0  0
    9.9284   -0.3267    5.4814 C   0  0
    9.9738   -1.8283    5.8190 C   0  0
    9.9356   -2.6960    4.5475 C   0  0
    8.7348   -2.3442    3.6461 C   0  0
    3.7454    0.8045    0.5034 C   0  0
    2.5652    1.2337    1.3975 C   0  0
    2.0325    0.0663    2.2461 C   0  0
    3.1582   -0.5975    3.0579 C   0  0
    4.3337   -1.0287    2.1592 C   0  0
    5.7024    0.9444   -5.8051 H   0  0
    4.8530   -1.0495   -4.6757 H   0  0
    5.1041   -1.3590   -2.2402 H   0  0
    6.8539    2.7464   -4.5471 H   0  0
    5.7688   -1.1992   -0.1180 H   0  0
    6.8280    0.0951    2.8725 H   0  0
    9.6504    1.9587    0.3803 H   0  0
   10.5332    2.9614    2.4390 H   0  0
    6.5498    4.1995    3.5311 H   0  0
    5.6799    3.2034    1.4635 H   0  0
    9.5692   -0.5890    2.7201 H   0  0
    5.2618    0.8964    2.0061 H   0  0
    8.7610    1.0788    4.3285 H   0  0
    7.8019   -0.1183    5.1494 H   0  0
   10.8521   -0.0397    4.9763 H   0  0
    9.8897    0.2608    6.3997 H   0  0
   10.8696   -2.0542    6.3990 H   0  0
    9.1260   -2.0825    6.4571 H   0  0
   10.8612   -2.5571    3.9864 H   0  0
    9.9012   -3.7521    4.8183 H   0  0
    7.8099   -2.6379    4.1452 H   0  0
    8.7859   -2.9435    2.7362 H   0  0
    4.1004    1.6851   -0.0325 H   0  0
    3.3867    0.1106   -0.2588 H   0  0
    2.8860    2.0430    2.0555 H   0  0
    1.7621    1.6428    0.7830 H   0  0
    1.2458    0.4179    2.9148 H   0  0
    1.5691   -0.6754    1.5935 H   0  0
    3.5186    0.0984    3.8172 H   0  0
    2.7666   -1.4603    3.5984 H   0  0
    3.9998   -1.8305    1.4983 H   0  0
    5.1056   -1.4688    2.7900 H   0  0
    7.6450    3.3945   -1.8199 H   0  0
  1  2  2  0
  1  4  1  0
  1 34  1  0
  2  3  1  0
  2 35  1  0
  3  6  2  0
  3 36  1  0
  4  5  2  0
  4 37  1  0
  5  6  1  0
  5  9  1  0
  6  7  1  0
  7  8  1  0
  7 10  1  0
  8  9  2  0
  8 14  1  0
  9 66  1  0
 10 11  1  0
 10 23  1  0
 10 38  1  0
 11 12  1  0
 11 13  2  0
 12 22  1  0
 12 39  1  0
 14 15  1  0
 14 19  2  0
 15 16  2  0
 15 40  1  0
 16 17  1  0
 16 41  1  0
 17 18  2  0
 17 20  1  0
 18 19  1  0
 18 42  1  0
 19 43  1  0
 20 21  3  0
 22 24  1  0
 22 28  1  0
 22 44  1  0
 23 29  1  0
 23 33  1  0
 23 45  1  0
 24 25  1  0
 24 46  1  0
 24 47  1  0
 25 26  1  0
 25 48  1  0
 25 49  1  0
 26 27  1  0
 26 50  1  0
 26 51  1  0
 27 28  1  0
 27 52  1  0
 27 53  1  0
 28 54  1  0
 28 55  1  0
 29 30  1  0
 29 56  1  0
 29 57  1  0
 30 31  1  0
 30 58  1  0
 30 59  1  0
 31 32  1  0
 31 60  1  0
 31 61  1  0
 32 33  1  0
 32 62  1  0
 32 63  1  0
 33 64  1  0
 33 65  1  0
M  CHG  1   9   1
M  END
> <Name>
ligand_123

> <activity>
1

$$$$
ligand_124
  SciTegic10272118463D

 58 62  0  0  1  0            999 V2000
   25.9020  -17.4767    0.5787 S   0  0
   24.9689  -16.9901    1.6018 O   0  0
   26.6729  -18.7042    0.8102 O   0  0
   27.4453  -13.8264   -0.3049 C   0  0
   26.5629  -14.8791   -0.0692 C   0  0
   27.0546  -16.1404    0.2739 C   0  0
   28.4340  -16.3478    0.3742 C   0  0
   29.3284  -15.2937    0.1212 C   0  0
   28.8213  -14.0320   -0.2055 C   0  0
   30.7273  -15.4092    0.2097 N   0  0
   31.4869  -16.5222    0.1054 C   0  0
   32.8981  -16.2723    0.2665 C   0  0
   31.0669  -17.6580   -0.1178 O   0  0
   33.9025  -17.1457    0.7534 C   0  0
   35.0993  -16.6002    0.6506 N   0  0
   34.9290  -15.3957    0.0842 N   0  0
   33.6043  -15.1621   -0.1828 C   0  0
   33.7700  -18.5147    1.3446 C   0  0
   36.0302  -14.5490   -0.1801 C   0  0
   37.2690  -15.0805   -0.5478 C   0  0
   38.3428  -14.2387   -0.8095 C   0  0
   38.1896  -12.8624   -0.7069 C   0  0
   36.9618  -12.3262   -0.3421 C   0  0
   35.8850  -13.1642   -0.0798 C   0  0
   24.9950  -17.6622   -0.9376 N   0  0
   23.7075  -18.3900   -0.8324 C   0  0
   23.9141  -19.9142   -0.9413 C   0  0
   24.6245  -20.2206   -2.1427 O   0  0
   25.9126  -19.6076   -2.2329 C   0  0
   25.7851  -18.0721   -2.1262 C   0  0
   32.7602  -18.8044    2.2686 C   0  0
   32.6050  -20.0244    2.8363 N   0  0
   33.4819  -20.9934    2.4784 C   0  0
   34.5214  -20.7978    1.5713 C   0  0
   34.6643  -19.5357    0.9997 C   0  0
   27.0629  -12.8500   -0.5642 H   0  0
   25.4980  -14.7135   -0.1473 H   0  0
   28.7939  -17.3238    0.6604 H   0  0
   29.4899  -13.2035   -0.3919 H   0  0
   31.2209  -14.5390    0.3382 H   0  0
   33.2883  -14.2527   -0.6729 H   0  0
   37.4058  -16.1490   -0.6363 H   0  0
   39.2978  -14.6555   -1.0938 H   0  0
   39.0256  -12.2092   -0.9103 H   0  0
   36.8442  -11.2555   -0.2607 H   0  0
   34.9403  -12.7264    0.2088 H   0  0
   23.2176  -18.1180    0.1027 H   0  0
   23.0606  -18.0360   -1.6358 H   0  0
   24.4758  -20.2938   -0.0857 H   0  0
   22.9535  -20.4294   -0.9553 H   0  0
   26.5508  -20.0065   -1.4433 H   0  0
   26.3670  -19.8844   -3.1843 H   0  0
   25.2799  -17.6753   -3.0074 H   0  0
   26.7630  -17.5917   -2.0881 H   0  0
   32.0519  -18.0484    2.5747 H   0  0
   33.3385  -21.9582    2.9426 H   0  0
   35.1971  -21.6013    1.3183 H   0  0
   35.4609  -19.3541    0.2926 H   0  0
  1  2  2  0
  1  3  2  0
  1  6  1  0
  1 25  1  0
  4  5  2  0
  4  9  1  0
  4 36  1  0
  5  6  1  0
  5 37  1  0
  6  7  2  0
  7  8  1  0
  7 38  1  0
  8  9  2  0
  8 10  1  0
  9 39  1  0
 10 11  1  0
 10 40  1  0
 11 12  1  0
 11 13  2  0
 12 14  1  0
 12 17  2  0
 14 15  2  0
 14 18  1  0
 15 16  1  0
 16 17  1  0
 16 19  1  0
 17 41  1  0
 18 31  2  0
 18 35  1  0
 19 20  2  0
 19 24  1  0
 20 21  1  0
 20 42  1  0
 21 22  2  0
 21 43  1  0
 22 23  1  0
 22 44  1  0
 23 24  2  0
 23 45  1  0
 24 46  1  0
 25 26  1  0
 25 30  1  0
 26 27  1  0
 26 47  1  0
 26 48  1  0
 27 28  1  0
 27 49  1  0
 27 50  1  0
 28 29  1  0
 29 30  1  0
 29 51  1  0
 29 52  1  0
 30 53  1  0
 30 54  1  0
 31 32  1  0
 31 55  1  0
 32 33  2  0
 33 34  1  0
 33 56  1  0
 34 35  2  0
 34 57  1  0
 35 58  1  0
M  END
> <Name>
ligand_124

> <activity>
1

$$$$
ligand_125
  SciTegic10272118463D

 60 64  0  0  1  0            999 V2000
   -0.9125  -22.4887   -0.4067 C   0  0
    0.2032  -23.0540   -1.0273 C   0  0
    1.5052  -22.7245   -0.6431 C   0  0
   -0.7715  -21.5647    0.6280 C   0  0
    0.5234  -21.2155    1.0338 C   0  0
    1.6491  -21.7973    0.3996 C   0  0
    2.7426  -21.2305    1.0468 N   0  0
    2.2129  -20.3712    2.0035 C   0  0
    0.9033  -20.3389    2.0078 N   0  0
    4.1801  -21.4459    0.7564 C   0  0  1  0  0  0
    4.5736  -22.9390    0.6012 C   0  0
    4.6731  -20.4397   -0.3419 C   0  0
    4.1989  -23.7461    1.6193 N   0  0
    5.2036  -23.3208   -0.3851 O   0  0
    6.2204  -20.3091   -0.4017 C   0  0
    6.6837  -19.2409   -1.4114 C   0  0
    6.0941  -19.4874   -2.8120 C   0  0
    4.5584  -19.5870   -2.7689 C   0  0
    4.0736  -20.6484   -1.7607 C   0  0
   -2.1538  -22.8388   -0.8141 F   0  0
    0.0234  -23.9444   -2.0294 F   0  0
    3.0142  -19.5313    2.9397 C   0  0
    3.8393  -20.1256    3.8993 C   0  0
    4.5787  -19.3302    4.7707 C   0  0
    4.4862  -17.9421    4.6867 C   0  0
    3.6569  -17.3435    3.7399 C   0  0
    2.9175  -18.1387    2.8682 C   0  0
    5.4030  -16.9565    5.7666 Cl  0  0
    4.3699  -25.1353    1.7501 C   0  0
    4.3468  -25.6507    3.0456 C   0  0
    4.4913  -27.0147    3.2757 C   0  0
    4.6501  -27.8837    2.2016 C   0  0
    4.6594  -27.3993    0.8846 C   0  0
    4.5144  -26.0186    0.6702 C   0  0
    4.8162  -28.3431   -0.2739 C   0  0
    4.9481  -29.5637   -0.0244 O   0  5
    4.8064  -27.8632   -1.4309 O   0  0
    2.3528  -23.1726   -1.1401 H   0  0
   -1.6401  -21.1307    1.1004 H   0  0
    4.7164  -21.1607    1.6593 H   0  0
    4.3219  -19.4569   -0.0180 H   0  0
    3.7559  -23.3019    2.4093 H   0  0
    6.6133  -20.0635    0.5859 H   0  0
    6.6733  -21.2617   -0.6765 H   0  0
    6.3825  -18.2531   -1.0591 H   0  0
    7.7731  -19.2258   -1.4637 H   0  0
    6.3972  -18.6889   -3.4903 H   0  0
    6.5067  -20.4102   -3.2230 H   0  0
    4.1418  -18.6156   -2.4981 H   0  0
    4.1723  -19.8153   -3.7632 H   0  0
    4.3322  -21.6375   -2.1390 H   0  0
    2.9858  -20.6110   -1.7236 H   0  0
    3.9076  -21.2015    3.9720 H   0  0
    5.2188  -19.7896    5.5097 H   0  0
    3.5853  -16.2673    3.6812 H   0  0
    2.2737  -17.6732    2.1356 H   0  0
    4.2220  -24.9910    3.8927 H   0  0
    4.4786  -27.3984    4.2852 H   0  0
    4.7592  -28.9399    2.4047 H   0  0
    4.4979  -25.6419   -0.3417 H   0  0
  1  2  2  0
  1  4  1  0
  1 20  1  0
  2  3  1  0
  2 21  1  0
  3  6  2  0
  3 38  1  0
  4  5  2  0
  4 39  1  0
  5  6  1  0
  5  9  1  0
  6  7  1  0
  7  8  1  0
  7 10  1  0
  8  9  2  0
  8 22  1  0
 10 11  1  0
 10 12  1  0
 10 40  1  0
 11 13  1  0
 11 14  2  0
 12 15  1  0
 12 19  1  0
 12 41  1  0
 13 29  1  0
 13 42  1  0
 15 16  1  0
 15 43  1  0
 15 44  1  0
 16 17  1  0
 16 45  1  0
 16 46  1  0
 17 18  1  0
 17 47  1  0
 17 48  1  0
 18 19  1  0
 18 49  1  0
 18 50  1  0
 19 51  1  0
 19 52  1  0
 22 23  2  0
 22 27  1  0
 23 24  1  0
 23 53  1  0
 24 25  2  0
 24 54  1  0
 25 26  1  0
 25 28  1  0
 26 27  2  0
 26 55  1  0
 27 56  1  0
 29 30  2  0
 29 34  1  0
 30 31  1  0
 30 57  1  0
 31 32  2  0
 31 58  1  0
 32 33  1  0
 32 59  1  0
 33 34  2  0
 33 35  1  0
 34 60  1  0
 35 36  1  0
 35 37  2  0
M  CHG  1  36  -1
M  END
> <Name>
ligand_125

> <activity>
1

$$$$
ligand_126
  SciTegic10272118463D

 48 51  0  0  1  0            999 V2000
   -0.8211    1.9565   -1.0874 C   0  0
   -0.4506    1.7939    0.3969 C   0  0
    0.4872    2.9129    0.9509 C   0  0  2  0  0  0
    1.8606    2.7974    0.2146 C   0  0
    0.6292    2.8547    2.5001 C   0  0
    1.8509    2.9466    3.0952 C   0  0
    3.0085    3.5038    2.3351 C   0  0
    4.0258    4.2163    2.9931 C   0  0
    5.0718    4.8011    2.2833 C   0  0
    5.0987    4.7148    0.8960 C   0  0
    6.1257    5.2862    0.1935 O   0  0
    4.0676    4.0605    0.2265 C   0  0
    3.0091    3.4770    0.9327 C   0  0
   -0.6008    2.7368    3.3391 C   0  0
   -0.5126    2.2353    4.6447 C   0  0
    0.8269    1.7419    5.1533 C   0  0
    2.0544    2.5184    4.5776 C   0  0  1  0  0  0
    3.3213    1.6263    4.7713 C   0  0
    3.7040    1.3815    6.2411 C   0  0
   -1.6583    2.1877    5.4423 C   0  0
   -2.8703    2.6803    4.9711 C   0  0
   -3.9822    2.6304    5.7682 O   0  0
   -2.9523    3.2391    3.7019 C   0  0
   -1.8178    3.2826    2.8995 C   0  0
   -1.5221    1.1810   -1.3977 H   0  0
   -1.2948    2.9210   -1.2730 H   0  0
    0.0515    1.8797   -1.7360 H   0  0
    0.0141    0.8180    0.5461 H   0  0
   -1.3883    1.7346    0.9428 H   0  0
    0.0567    3.8875    0.7155 H   0  0
    2.1421    1.7494    0.0982 H   0  0
    1.7644    3.2011   -0.7944 H   0  0
    4.0181    4.3287    4.0669 H   0  0
    5.8533    5.3281    2.8112 H   0  0
    6.0409    5.1713   -0.7553 H   0  0
    4.0772    4.0141   -0.8528 H   0  0
    0.8485    1.7885    6.2431 H   0  0
    0.8896    0.6843    4.8919 H   0  0
    2.1754    3.4382    5.1521 H   0  0
    3.1741    0.6662    4.2740 H   0  0
    4.1999    2.0491    4.2916 H   0  0
    4.6265    0.8041    6.3091 H   0  0
    3.8652    2.3219    6.7692 H   0  0
    2.9350    0.8233    6.7749 H   0  0
   -1.6031    1.7776    6.4404 H   0  0
   -4.7592    3.0026    5.3456 H   0  0
   -3.8840    3.6471    3.3381 H   0  0
   -1.9002    3.7493    1.9294 H   0  0
  1  2  1  0
  1 25  1  0
  1 26  1  0
  1 27  1  0
  2  3  1  0
  2 28  1  0
  2 29  1  0
  3  4  1  0
  3  5  1  0
  3 30  1  0
  4 13  1  0
  4 31  1  0
  4 32  1  0
  5  6  2  0
  5 14  1  0
  6  7  1  0
  6 17  1  0
  7  8  2  0
  7 13  1  0
  8  9  1  0
  8 33  1  0
  9 10  2  0
  9 34  1  0
 10 11  1  0
 10 12  1  0
 11 35  1  0
 12 13  2  0
 12 36  1  0
 14 15  2  0
 14 24  1  0
 15 16  1  0
 15 20  1  0
 16 17  1  0
 16 37  1  0
 16 38  1  0
 17 18  1  0
 17 39  1  0
 18 19  1  0
 18 40  1  0
 18 41  1  0
 19 42  1  0
 19 43  1  0
 19 44  1  0
 20 21  2  0
 20 45  1  0
 21 22  1  0
 21 23  1  0
 22 46  1  0
 23 24  2  0
 23 47  1  0
 24 48  1  0
M  END
> <Name>
ligand_126

> <activity>
1

$$$$
ligand_127
  SciTegic10272118463D

 47 48  0  0  1  0            999 V2000
    0.2914    0.0020    0.4755 C   0  0
    0.4489    1.2839    0.9964 C   0  0
   -0.6508    2.1232    1.1308 C   0  0
   -1.9235    1.6917    0.7564 C   0  0
   -2.1251    0.3907    0.2388 C   0  0
   -0.9919   -0.4380    0.1149 C   0  0
   -2.9479    2.5872    0.9226 O   0  0
    1.4503   -0.7891    0.3839 N   0  0
    1.6883   -1.8333   -0.4373 C   0  0
    0.9221   -2.2721   -1.2952 O   0  0
    3.0386   -2.4649   -0.2402 C   0  0
    3.2031   -3.5319    0.6595 C   0  0
    4.4589   -4.1142    0.8311 C   0  0
    5.5872   -3.6685    0.1235 C   0  0
    5.4018   -2.6015   -0.7707 C   0  0
    4.1554   -2.0042   -0.9582 C   0  0
    6.8666   -4.2664    0.3121 N   0  0
    1.8850   -4.1711    1.5892 Cl  0  0
   -3.5398   -0.1224   -0.1787 C   0  0
   -4.4996   -0.1191    1.0389 C   0  0
   -4.1224    0.7581   -1.3143 C   0  0
   -3.5322   -1.5799   -0.7219 C   0  0
    4.0524   -0.6944   -2.0913 Cl  0  0
    7.9685   -3.9516   -0.5987 C   0  0
    6.9919   -5.5182    1.0606 C   0  0
    1.4243    1.6420    1.2937 H   0  0
   -0.5069    3.1168    1.5300 H   0  0
   -1.0990   -1.4450   -0.2495 H   0  0
   -2.6538    3.4262    1.2835 H   0  0
    2.2138   -0.5014    0.9775 H   0  0
    4.5291   -4.9302    1.5324 H   0  0
    6.2246   -2.2104   -1.3476 H   0  0
   -5.4716   -0.5441    0.7842 H   0  0
   -4.0959   -0.7091    1.8631 H   0  0
   -4.6975    0.8799    1.4233 H   0  0
   -5.0777    0.3708   -1.6719 H   0  0
   -4.3095    1.7849   -1.0050 H   0  0
   -3.4488    0.7958   -2.1716 H   0  0
   -4.5321   -1.9082   -1.0103 H   0  0
   -2.9044   -1.6808   -1.6087 H   0  0
   -3.1761   -2.2912    0.0249 H   0  0
    8.9142   -4.3636   -0.2443 H   0  0
    7.7687   -4.3641   -1.5884 H   0  0
    8.1092   -2.8766   -0.7086 H   0  0
    8.0358   -5.7725    1.2482 H   0  0
    6.4972   -5.4622    2.0299 H   0  0
    6.5383   -6.3379    0.5021 H   0  0
  1  2  2  0
  1  6  1  0
  1  8  1  0
  2  3  1  0
  2 26  1  0
  3  4  2  0
  3 27  1  0
  4  5  1  0
  4  7  1  0
  5  6  2  0
  5 19  1  0
  6 28  1  0
  7 29  1  0
  8  9  1  0
  8 30  1  0
  9 10  2  0
  9 11  1  0
 11 12  2  0
 11 16  1  0
 12 13  1  0
 12 18  1  0
 13 14  2  0
 13 31  1  0
 14 15  1  0
 14 17  1  0
 15 16  2  0
 15 32  1  0
 16 23  1  0
 17 24  1  0
 17 25  1  0
 19 20  1  0
 19 21  1  0
 19 22  1  0
 20 33  1  0
 20 34  1  0
 20 35  1  0
 21 36  1  0
 21 37  1  0
 21 38  1  0
 22 39  1  0
 22 40  1  0
 22 41  1  0
 24 42  1  0
 24 43  1  0
 24 44  1  0
 25 45  1  0
 25 46  1  0
 25 47  1  0
M  END
> <Name>
ligand_127

> <activity>
1

$$$$
ligand_128
  SciTegic10272118463D

 63 67  0  0  1  0            999 V2000
   -0.7384  -13.2403   -1.3985 C   0  0
   -0.7256  -14.5447   -1.8962 C   0  0
    0.2645  -15.4612   -1.5340 C   0  0
    0.2442  -12.7957   -0.5148 C   0  0
    1.2502  -13.6940   -0.1346 C   0  0
    1.2524  -15.0165   -0.6430 C   0  0
    2.3700  -15.6087   -0.0634 N   0  0
    2.9466  -14.6276    0.7361 C   0  0
    2.3071  -13.4848    0.7024 N   0  0
    2.8836  -16.9821   -0.2804 C   0  0  1  0  0  0
    1.7952  -18.0843   -0.1863 C   0  0
    3.8582  -17.0162   -1.5095 C   0  0
    1.0453  -18.0611    0.9388 N   0  0
    1.6476  -18.8961   -1.0998 O   0  0
    4.7406  -18.2945   -1.5547 C   0  0
    5.7646  -18.2644   -2.7062 C   0  0
    5.0864  -18.0115   -4.0648 C   0  0
    4.2344  -16.7294   -4.0408 C   0  0
    3.2053  -16.7377   -2.8924 C   0  0
   -1.7179  -12.3886   -1.7790 F   0  0
   -1.6954  -14.9358   -2.7541 F   0  0
    4.1822  -14.8028    1.5527 C   0  0
    4.2111  -15.7151    2.6119 C   0  0
    5.3693  -15.8657    3.3698 C   0  0
    6.4944  -15.0985    3.0728 C   0  0
    6.4685  -14.1792    2.0256 C   0  0
    5.3104  -14.0287    1.2673 C   0  0
    7.9300  -15.2856    4.0121 Cl  0  0
   -0.0043  -18.9144    1.3232 C   0  0
   -0.8842  -18.4138    2.2854 C   0  0
   -1.9452  -19.1931    2.7378 C   0  0
   -2.1296  -20.4834    2.2358 C   0  0
   -1.2449  -20.9926    1.2824 C   0  0
   -0.1826  -20.2155    0.8282 C   0  0
   -3.2892  -21.3424    2.7365 C   0  0
   -4.5366  -21.2028    1.8482 C   0  0
   -4.8351  -20.0678    1.4127 O   0  5
   -5.2010  -22.2435    1.6495 O   0  0
    0.2557  -16.4641   -1.9343 H   0  0
    0.2277  -11.7842   -0.1369 H   0  0
    3.5112  -17.2086    0.5793 H   0  0
    4.5617  -16.1957   -1.3481 H   0  0
    1.2200  -17.3004    1.5780 H   0  0
    5.2688  -18.4177   -0.6082 H   0  0
    4.1193  -19.1827   -1.6696 H   0  0
    6.5014  -17.4823   -2.5167 H   0  0
    6.3188  -19.2033   -2.7360 H   0  0
    5.8394  -17.9443   -4.8510 H   0  0
    4.4539  -18.8634   -4.3198 H   0  0
    4.8894  -15.8635   -3.9317 H   0  0
    3.7237  -16.6041   -4.9964 H   0  0
    2.4426  -17.4859   -3.1083 H   0  0
    2.6952  -15.7755   -2.8856 H   0  0
    3.3383  -16.3060    2.8495 H   0  0
    5.3925  -16.5731    4.1858 H   0  0
    7.3416  -13.5839    1.8016 H   0  0
    5.2913  -13.3143    0.4566 H   0  0
   -0.7572  -17.4171    2.6836 H   0  0
   -2.6266  -18.7930    3.4745 H   0  0
   -1.3785  -21.9921    0.8948 H   0  0
    0.4926  -20.6482    0.1067 H   0  0
   -2.9785  -22.3877    2.7824 H   0  0
   -3.5561  -21.0633    3.7565 H   0  0
  1  2  2  0
  1  4  1  0
  1 20  1  0
  2  3  1  0
  2 21  1  0
  3  6  2  0
  3 39  1  0
  4  5  2  0
  4 40  1  0
  5  6  1  0
  5  9  1  0
  6  7  1  0
  7  8  1  0
  7 10  1  0
  8  9  2  0
  8 22  1  0
 10 11  1  0
 10 12  1  0
 10 41  1  0
 11 13  1  0
 11 14  2  0
 12 15  1  0
 12 19  1  0
 12 42  1  0
 13 29  1  0
 13 43  1  0
 15 16  1  0
 15 44  1  0
 15 45  1  0
 16 17  1  0
 16 46  1  0
 16 47  1  0
 17 18  1  0
 17 48  1  0
 17 49  1  0
 18 19  1  0
 18 50  1  0
 18 51  1  0
 19 52  1  0
 19 53  1  0
 22 23  2  0
 22 27  1  0
 23 24  1  0
 23 54  1  0
 24 25  2  0
 24 55  1  0
 25 26  1  0
 25 28  1  0
 26 27  2  0
 26 56  1  0
 27 57  1  0
 29 30  2  0
 29 34  1  0
 30 31  1  0
 30 58  1  0
 31 32  2  0
 31 59  1  0
 32 33  1  0
 32 35  1  0
 33 34  2  0
 33 60  1  0
 34 61  1  0
 35 36  1  0
 35 62  1  0
 35 63  1  0
 36 37  1  0
 36 38  2  0
M  CHG  1  37  -1
M  END
> <Name>
ligand_128

> <activity>
1

$$$$
ligand_129
  SciTegic10272118463D

 53 56  0  0  1  0            999 V2000
   -1.3269    3.6520    1.1851 C   0  0
   -2.7116    3.7424    1.3132 C   0  0
   -3.3695    3.1835    2.4029 C   0  0
   -2.6780    2.4978    3.3992 C   0  0
   -1.2893    2.4052    3.2589 C   0  0
   -0.5733    2.9908    2.1770 C   0  0
    0.8431    2.7377    2.3955 C   0  0
   -0.3582    1.7687    4.0326 N   0  0
    0.9121    1.8907    3.5170 C   0  0
    3.3863    3.1487    2.2011 C   0  0
    1.9975    3.2598    1.5114 C   0  0
    2.0323    1.1412    4.1290 C   0  0
    3.2868    1.1109    3.6111 C   0  0
    3.8399    1.7956    2.5676 N   0  0
    4.9287    1.2968    1.8991 C   0  0
    1.8328    0.2593    5.3208 C   0  0
    2.6044   -0.8656    5.3424 O   0  0
    0.9907    0.5086    6.1879 O   0  0
    2.5052   -1.8099    6.3996 C   0  0
    3.4884   -2.9557    6.1406 C   0  0
    5.1111   -0.2060    1.8124 C   0  0
    5.7541    2.0085    1.3194 O   0  0
    6.3819   -0.7617    2.0079 C   0  0
    4.0286   -1.0490    1.5208 C   0  0
    4.2122   -2.4272    1.4496 C   0  0
    5.4782   -2.9685    1.6586 C   0  0
    6.5646   -2.1403    1.9349 C   0  0
    5.6511   -4.3082    1.5896 F   0  0
    2.0075    2.4855    0.1737 C   0  0
    1.8275    4.7763    1.2296 C   0  0
    7.7932   -2.6700    2.1331 F   0  0
   -0.8618    4.0802    0.3129 H   0  0
   -3.2844    4.2521    0.5522 H   0  0
   -4.4440    3.2719    2.4714 H   0  0
   -3.2010    2.0496    4.2312 H   0  0
   -0.5311    1.2273    4.8687 H   0  0
    4.1192    3.6614    1.5753 H   0  0
    3.3619    3.7307    3.1241 H   0  0
    4.0368    0.4957    4.0976 H   0  0
    2.7313   -1.3286    7.3525 H   0  0
    1.4865   -2.1962    6.4609 H   0  0
    3.4350   -3.6993    6.9358 H   0  0
    3.2681   -3.4590    5.1986 H   0  0
    4.5151   -2.5912    6.0940 H   0  0
    7.2327   -0.1304    2.2239 H   0  0
    3.0402   -0.6448    1.3527 H   0  0
    3.3756   -3.0747    1.2318 H   0  0
    2.8257    2.8100   -0.4708 H   0  0
    2.1236    1.4128    0.3314 H   0  0
    1.0807    2.6291   -0.3828 H   0  0
    2.6955    5.1900    0.7135 H   0  0
    0.9791    5.0075    0.5929 H   0  0
    1.7043    5.3430    2.1539 H   0  0
  1  2  1  0
  1  6  2  0
  1 32  1  0
  2  3  2  0
  2 33  1  0
  3  4  1  0
  3 34  1  0
  4  5  2  0
  4 35  1  0
  5  6  1  0
  5  8  1  0
  6  7  1  0
  7  9  2  0
  7 11  1  0
  8  9  1  0
  8 36  1  0
  9 12  1  0
 10 11  1  0
 10 14  1  0
 10 37  1  0
 10 38  1  0
 11 29  1  0
 11 30  1  0
 12 13  2  0
 12 16  1  0
 13 14  1  0
 13 39  1  0
 14 15  1  0
 15 21  1  0
 15 22  2  0
 16 17  1  0
 16 18  2  0
 17 19  1  0
 19 20  1  0
 19 40  1  0
 19 41  1  0
 20 42  1  0
 20 43  1  0
 20 44  1  0
 21 23  2  0
 21 24  1  0
 23 27  1  0
 23 45  1  0
 24 25  2  0
 24 46  1  0
 25 26  1  0
 25 47  1  0
 26 27  2  0
 26 28  1  0
 27 31  1  0
 29 48  1  0
 29 49  1  0
 29 50  1  0
 30 51  1  0
 30 52  1  0
 30 53  1  0
M  END
> <Name>
ligand_129

> <activity>
1

$$$$
ligand_130
  SciTegic10272118463D

 65 67  0  0  1  0            999 V2000
    7.9896    2.0331   -3.2268 C   0  0
    8.0873    0.6428   -3.1471 C   0  0
    8.7246    0.0468   -2.0576 C   0  0
    8.5259    2.8406   -2.2179 C   0  0
    9.1568    2.2380   -1.1213 C   0  0
    9.2640    0.8440   -1.0456 C   0  0
    9.9353    0.2628    0.1082 C   0  0
   10.3192    1.0303    1.1354 C   0  0
   10.0475    2.5408    1.1578 C   0  0  2  0  0  0
    9.7019    3.0695   -0.1513 O   0  0
    7.5573   -0.1348   -4.1421 O   0  0
    8.4161    4.3539   -2.3172 C   0  0
   11.3608    3.2422    1.5530 C   0  0
    8.8399    2.7858    2.0983 C   0  0
    8.4059    4.2595    2.2283 C   0  0
    7.1774    4.4446    3.1049 C   0  0
    7.1308    4.8306    4.3992 C   0  0
    5.7914    5.0062    5.1107 C   0  0
    8.3595    5.1427    5.2475 C   0  0
    5.3568    3.8103    5.9872 C   0  0  2  0  0  0
    3.9970    4.0020    6.5978 C   0  0
    4.0942    3.9316    7.9303 C   0  0
    5.5009    3.7320    8.2592 C   0  0
    6.1991    3.6690    7.1136 O   0  0
    6.0015    3.6369    9.3788 O   0  0
    3.0538    4.0687    9.0326 C   0  0
    2.7261    2.7528    9.7609 C   0  0
    1.6764    2.9156   10.8488 C   0  0
    0.3690    2.5822   10.7909 C   0  0
   -0.5494    2.7864   11.9839 C   0  0
   -0.3229    2.0016    9.5655 C   0  0
    7.4965    2.4825   -4.0768 H   0  0
    8.8008   -1.0294   -1.9986 H   0  0
   10.1368   -0.7986    0.1384 H   0  0
   10.7976    0.5584    1.9815 H   0  0
    7.6791   -1.0746   -3.9916 H   0  0
    7.8690    4.7499   -1.4610 H   0  0
    9.4088    4.8052   -2.3264 H   0  0
    7.8958    4.6676   -3.2230 H   0  0
   11.2545    4.3269    1.5348 H   0  0
   11.6787    2.9612    2.5577 H   0  0
   12.1692    2.9901    0.8651 H   0  0
    7.9874    2.2029    1.7439 H   0  0
    9.0715    2.4008    3.0933 H   0  0
    9.2316    4.8672    2.5925 H   0  0
    8.1636    4.6644    1.2450 H   0  0
    6.2443    4.2432    2.5978 H   0  0
    5.8203    5.9232    5.7021 H   0  0
    5.0189    5.1740    4.3579 H   0  0
    8.3193    6.1734    5.6005 H   0  0
    8.4023    4.4899    6.1181 H   0  0
    9.3008    5.0140    4.7178 H   0  0
    5.3861    2.8901    5.4018 H   0  0
    3.1034    4.1677    6.0141 H   0  0
    3.3926    4.8199    9.7486 H   0  0
    2.1417    4.4695    8.5874 H   0  0
    2.4232    1.9955    9.0390 H   0  0
    3.6243    2.3547   10.2346 H   0  0
    2.0571    3.3396   11.7674 H   0  0
   -0.9817    1.8350   12.2954 H   0  0
   -0.0223    3.2096   12.8401 H   0  0
   -1.3632    3.4644   11.7253 H   0  0
   -0.6265    0.9725    9.7593 H   0  0
   -1.2177    2.5793    9.3317 H   0  0
    0.2993    2.0064    8.6725 H   0  0
  1  2  1  0
  1  4  2  0
  1 32  1  0
  2  3  2  0
  2 11  1  0
  3  6  1  0
  3 33  1  0
  4  5  1  0
  4 12  1  0
  5  6  2  0
  5 10  1  0
  6  7  1  0
  7  8  2  0
  7 34  1  0
  8  9  1  0
  8 35  1  0
  9 10  1  0
  9 13  1  0
  9 14  1  0
 11 36  1  0
 12 37  1  0
 12 38  1  0
 12 39  1  0
 13 40  1  0
 13 41  1  0
 13 42  1  0
 14 15  1  0
 14 43  1  0
 14 44  1  0
 15 16  1  0
 15 45  1  0
 15 46  1  0
 16 17  2  0
 16 47  1  0
 17 18  1  0
 17 19  1  0
 18 20  1  0
 18 48  1  0
 18 49  1  0
 19 50  1  0
 19 51  1  0
 19 52  1  0
 20 21  1  0
 20 24  1  0
 20 53  1  0
 21 22  2  0
 21 54  1  0
 22 23  1  0
 22 26  1  0
 23 24  1  0
 23 25  2  0
 26 27  1  0
 26 55  1  0
 26 56  1  0
 27 28  1  0
 27 57  1  0
 27 58  1  0
 28 29  2  0
 28 59  1  0
 29 30  1  0
 29 31  1  0
 30 60  1  0
 30 61  1  0
 30 62  1  0
 31 63  1  0
 31 64  1  0
 31 65  1  0
M  END
> <Name>
ligand_130

> <activity>
1

$$$$
ligand_131
  SciTegic10272118463D

 59 60  0  0  1  0            999 V2000
    7.7130  -25.4676    5.8359 C   0  0
    7.7474  -25.6626    7.3741 C   0  0
    6.8905  -26.6516    5.2498 C   0  0
    3.6428  -16.8225   -0.8049 C   0  0
    4.1655  -17.8165   -1.6429 C   0  0
    4.7432  -18.9776   -1.1226 C   0  0
    4.7895  -19.1786    0.2642 C   0  0
    4.2459  -18.1960    1.1059 C   0  0
    3.6712  -17.0357    0.5865 C   0  0
    5.3070  -20.0199   -2.0844 C   0  0
    4.3016  -21.1438   -2.3946 C   0  0
    3.0191  -15.6196   -1.4462 C   0  0
    3.2370  -14.2635   -0.7753 C   0  0
    3.1295  -16.1466    1.4809 O   0  0
    5.3640  -20.3510    0.7237 O   0  0
    5.4146  -20.6164    2.1221 C   0  0
    6.0898  -21.9785    2.3372 C   0  0
    6.1927  -22.3710    3.8220 C   0  0
    6.8741  -23.7343    4.0353 C   0  0
    6.9743  -24.1270    5.5274 C   0  0
    9.1658  -25.4297    5.2973 C   0  0
    9.6601  -26.2964    4.4368 N   0  0
   10.9598  -25.9061    4.2200 N   0  0
   11.1916  -24.7937    4.9832 N   0  0
   10.0328  -24.5076    5.6643 N   0  5
    2.5039  -15.6351   -2.5645 O   0  0
    4.8652  -22.2018   -3.3591 C   0  0
    3.8638  -23.3235   -3.6664 C   0  0
    8.2652  -24.8439    7.8760 H   0  0
    6.7432  -25.7131    7.7976 H   0  0
    8.2622  -26.5849    7.6476 H   0  0
    6.8464  -26.6223    4.1608 H   0  0
    7.3255  -27.6142    5.5230 H   0  0
    5.8626  -26.6484    5.6151 H   0  0
    4.1352  -17.6903   -2.7171 H   0  0
    4.2549  -18.3274    2.1769 H   0  0
    5.6167  -19.5309   -3.0097 H   0  0
    6.2233  -20.4392   -1.6656 H   0  0
    4.0011  -21.6282   -1.4639 H   0  0
    3.3947  -20.7111   -2.8204 H   0  0
    3.1575  -13.4572   -1.5048 H   0  0
    2.4929  -14.0994    0.0036 H   0  0
    4.2294  -14.2140   -0.3273 H   0  0
    3.2160  -16.4340    2.3922 H   0  0
    4.4057  -20.6331    2.5389 H   0  0
    5.9814  -19.8362    2.6337 H   0  0
    7.0876  -21.9573    1.8961 H   0  0
    5.5323  -22.7443    1.7956 H   0  0
    5.1941  -22.3931    4.2613 H   0  0
    6.7477  -21.6019    4.3618 H   0  0
    7.8710  -23.7056    3.5932 H   0  0
    6.3195  -24.4965    3.4878 H   0  0
    5.9668  -24.1647    5.9456 H   0  0
    7.4732  -23.3154    6.0606 H   0  0
    5.1644  -21.7242   -4.2932 H   0  0
    5.7707  -22.6382   -2.9350 H   0  0
    4.2957  -24.0540   -4.3510 H   0  0
    3.5720  -23.8531   -2.7589 H   0  0
    2.9587  -22.9302   -4.1305 H   0  0
  1  2  1  0
  1  3  1  0
  1 20  1  0
  1 21  1  0
  2 29  1  0
  2 30  1  0
  2 31  1  0
  3 32  1  0
  3 33  1  0
  3 34  1  0
  4  5  2  0
  4  9  1  0
  4 12  1  0
  5  6  1  0
  5 35  1  0
  6  7  2  0
  6 10  1  0
  7  8  1  0
  7 15  1  0
  8  9  2  0
  8 36  1  0
  9 14  1  0
 10 11  1  0
 10 37  1  0
 10 38  1  0
 11 27  1  0
 11 39  1  0
 11 40  1  0
 12 13  1  0
 12 26  2  0
 13 41  1  0
 13 42  1  0
 13 43  1  0
 14 44  1  0
 15 16  1  0
 16 17  1  0
 16 45  1  0
 16 46  1  0
 17 18  1  0
 17 47  1  0
 17 48  1  0
 18 19  1  0
 18 49  1  0
 18 50  1  0
 19 20  1  0
 19 51  1  0
 19 52  1  0
 20 53  1  0
 20 54  1  0
 21 22  2  0
 21 25  1  0
 22 23  1  0
 23 24  2  0
 24 25  1  0
 27 28  1  0
 27 55  1  0
 27 56  1  0
 28 57  1  0
 28 58  1  0
 28 59  1  0
M  CHG  1  25  -1
M  END
> <Name>
ligand_131

> <activity>
1

$$$$
ligand_132
  SciTegic10272118463D

 57 61  0  0  1  0            999 V2000
    4.6939    0.5467   -2.0295 F   0  0
    3.5751    1.0251   -1.4390 C   0  0
    2.5236    0.1511   -1.1648 C   0  0
    1.3737    0.6681   -0.5534 C   0  0
    0.2241    0.0171   -0.2114 N   0  0
   -0.5396    0.9352    0.3269 C   0  0
   -1.9215    0.6252    0.7916 C   0  0
   -2.8827    0.2257   -0.1413 C   0  0
   -4.1799   -0.0616    0.2751 C   0  0
   -4.5119    0.0442    1.6246 C   0  0
   -6.1198   -0.3110    2.1406 Cl  0  0
   -3.5551    0.4317    2.5611 C   0  0
   -2.2580    0.7194    2.1447 C   0  0
    0.0526    2.1927    0.3675 N   0  0
   -0.5502    3.4415    0.8816 C   0  0  1  0  0  0
    0.3121    4.1022    2.0173 C   0  0
   -0.4083    5.3082    2.6871 C   0  0
    0.4393    5.9724    3.7907 C   0  0
    0.8953    4.9578    4.8538 C   0  0
    1.6168    3.7585    4.2146 C   0  0
    0.7631    3.0968    3.1150 C   0  0
   -0.9219    4.3791   -0.2908 C   0  0
   -0.1818    5.3181   -0.5868 O   0  0
   -2.0533    4.0508   -0.9526 N   0  0
   -2.6542    4.6832   -2.0547 C   0  0
   -3.6298    3.9506   -2.7402 C   0  0
   -4.2668    4.5344   -3.8366 C   0  0
   -3.9888    5.7898   -4.2692 N   0  0
   -3.0491    6.4970   -3.5926 C   0  0
   -2.3641    5.9897   -2.4869 C   0  0
    1.3023    2.0441   -0.2221 C   0  0
    2.3553    2.9241   -0.5091 C   0  0
    3.4887    2.3817   -1.1198 C   0  0
    4.5278    3.1975   -1.4100 F   0  0
    2.5957   -0.8950   -1.4229 H   0  0
   -2.6265    0.1421   -1.1879 H   0  0
   -4.9237   -0.3665   -0.4465 H   0  0
   -3.8155    0.5064    3.6068 H   0  0
   -1.5171    1.0092    2.8739 H   0  0
   -1.4937    3.1709    1.3546 H   0  0
    1.2227    4.4980    1.5673 H   0  0
   -0.6647    6.0671    1.9476 H   0  0
   -1.3553    4.9751    3.1149 H   0  0
    1.3145    6.4428    3.3396 H   0  0
   -0.1274    6.7760    4.2628 H   0  0
    1.5485    5.4442    5.5794 H   0  0
    0.0280    4.6038    5.4134 H   0  0
    2.5644    4.0900    3.7868 H   0  0
    1.8698    3.0255    4.9816 H   0  0
   -0.1143    2.6435    3.5762 H   0  0
    1.3363    2.2777    2.6801 H   0  0
   -2.5266    3.2159   -0.6416 H   0  0
   -3.8914    2.9465   -2.4383 H   0  0
   -5.0208    3.9922   -4.3884 H   0  0
   -2.8511    7.4969   -3.9501 H   0  0
   -1.6426    6.6183   -1.9896 H   0  0
    2.3082    3.9783   -0.2832 H   0  0
  1  2  1  0
  2  3  1  0
  2 33  2  0
  3  4  2  0
  3 35  1  0
  4  5  1  0
  4 31  1  0
  5  6  2  0
  6  7  1  0
  6 14  1  0
  7  8  2  0
  7 13  1  0
  8  9  1  0
  8 36  1  0
  9 10  2  0
  9 37  1  0
 10 11  1  0
 10 12  1  0
 12 13  2  0
 12 38  1  0
 13 39  1  0
 14 15  1  0
 14 31  1  0
 15 16  1  0
 15 22  1  0
 15 40  1  0
 16 17  1  0
 16 21  1  0
 16 41  1  0
 17 18  1  0
 17 42  1  0
 17 43  1  0
 18 19  1  0
 18 44  1  0
 18 45  1  0
 19 20  1  0
 19 46  1  0
 19 47  1  0
 20 21  1  0
 20 48  1  0
 20 49  1  0
 21 50  1  0
 21 51  1  0
 22 23  2  0
 22 24  1  0
 24 25  1  0
 24 52  1  0
 25 26  2  0
 25 30  1  0
 26 27  1  0
 26 53  1  0
 27 28  2  0
 27 54  1  0
 28 29  1  0
 29 30  2  0
 29 55  1  0
 30 56  1  0
 31 32  2  0
 32 33  1  0
 32 57  1  0
 33 34  1  0
M  END
> <Name>
ligand_132

> <activity>
1

$$$$
ligand_133
  SciTegic10272118463D

 65 69  0  0  1  0            999 V2000
   24.8995  -20.2129    5.3001 C   0  0
   24.0928  -21.3509    5.3629 C   0  0
   23.6644  -22.0141    4.2103 C   0  0
   25.3145  -19.6899    4.0759 C   0  0
   24.8994  -20.3361    2.9037 C   0  0
   24.0776  -21.4864    2.9786 C   0  0
   23.8556  -21.8500    1.6569 N   0  0
   24.5732  -20.9275    0.8901 C   0  0
   25.1791  -20.0154    1.6087 N   0  0
   22.9994  -22.9846    1.2268 C   0  0  2  0  0  0
   23.6204  -23.8921    0.1384 C   0  0
   21.4942  -22.5742    1.0285 C   0  0
   23.0172  -23.9454   -1.0637 N   0  0
   24.6584  -24.5062    0.3897 O   0  0
   20.7636  -22.2875    2.3673 C   0  0
   19.2632  -21.9920    2.1685 C   0  0
   19.0334  -20.8471    1.1646 C   0  0
   19.7547  -21.1087   -0.1705 C   0  0
   21.2531  -21.4046    0.0373 C   0  0
   25.2887  -19.6047    6.4438 F   0  0
   23.7127  -21.8277    6.5702 F   0  0
   24.7079  -20.9122   -0.5936 C   0  0
   25.6218  -21.7560   -1.2296 C   0  0
   25.7870  -21.7806   -2.5731 N   0  0
   25.0395  -20.9281   -3.3164 C   0  0
   24.1306  -20.0286   -2.7584 C   0  0
   23.9733  -20.0163   -1.3745 C   0  0
   23.4902  -24.6792   -2.2379 C   0  0  1  0  0  0
   23.2909  -26.2122   -2.1504 C   0  0
   23.8250  -26.9510   -3.3944 C   0  0
   23.2260  -26.3745   -4.7029 C   0  0  1  0  0  0
   23.4227  -24.8401   -4.8004 C   0  0
   22.8850  -24.1235   -3.5465 C   0  0
   23.8752  -27.0631   -5.9236 C   0  0
   25.1104  -26.9341   -6.0835 O   0  5
   23.1207  -27.7115   -6.6824 O   0  0
   25.2252  -20.9698   -5.0308 Cl  0  0
   23.0414  -22.8929    4.2822 H   0  0
   25.9404  -18.8108    4.0364 H   0  0
   22.9936  -23.6731    2.0736 H   0  0
   20.9826  -23.4452    0.6122 H   0  0
   22.1570  -23.4321   -1.1853 H   0  0
   20.8733  -23.1340    3.0464 H   0  0
   21.2235  -21.4328    2.8643 H   0  0
   18.7606  -22.8927    1.8124 H   0  0
   18.8019  -21.7454    3.1256 H   0  0
   17.9652  -20.7100    0.9919 H   0  0
   19.3950  -19.9114    1.5940 H   0  0
   19.2855  -21.9532   -0.6779 H   0  0
   19.6331  -20.2508   -0.8329 H   0  0
   21.7343  -20.5027    0.4162 H   0  0
   21.7075  -21.6156   -0.9298 H   0  0
   26.2307  -22.4448   -0.6614 H   0  0
   23.5604  -19.3567   -3.3827 H   0  0
   23.2829  -19.3232   -0.9166 H   0  0
   24.5658  -24.4897   -2.2907 H   0  0
   23.7844  -26.6060   -1.2608 H   0  0
   22.2295  -26.4331   -2.0266 H   0  0
   24.9139  -26.8660   -3.4008 H   0  0
   23.5943  -28.0141   -3.3057 H   0  0
   22.1605  -26.6092   -4.7504 H   0  0
   24.4810  -24.5924   -4.9094 H   0  0
   22.9161  -24.4456   -5.6830 H   0  0
   21.7983  -24.2198   -3.5145 H   0  0
   23.0871  -23.0549   -3.6276 H   0  0
  1  2  2  0
  1  4  1  0
  1 20  1  0
  2  3  1  0
  2 21  1  0
  3  6  2  0
  3 38  1  0
  4  5  2  0
  4 39  1  0
  5  6  1  0
  5  9  1  0
  6  7  1  0
  7  8  1  0
  7 10  1  0
  8  9  2  0
  8 22  1  0
 10 11  1  0
 10 12  1  0
 10 40  1  0
 11 13  1  0
 11 14  2  0
 12 15  1  0
 12 19  1  0
 12 41  1  0
 13 28  1  0
 13 42  1  0
 15 16  1  0
 15 43  1  0
 15 44  1  0
 16 17  1  0
 16 45  1  0
 16 46  1  0
 17 18  1  0
 17 47  1  0
 17 48  1  0
 18 19  1  0
 18 49  1  0
 18 50  1  0
 19 51  1  0
 19 52  1  0
 22 23  2  0
 22 27  1  0
 23 24  1  0
 23 53  1  0
 24 25  2  0
 25 26  1  0
 25 37  1  0
 26 27  2  0
 26 54  1  0
 27 55  1  0
 28 29  1  0
 28 33  1  0
 28 56  1  0
 29 30  1  0
 29 57  1  0
 29 58  1  0
 30 31  1  0
 30 59  1  0
 30 60  1  0
 31 32  1  0
 31 34  1  0
 31 61  1  0
 32 33  1  0
 32 62  1  0
 32 63  1  0
 33 64  1  0
 33 65  1  0
 34 35  1  0
 34 36  2  0
M  CHG  1  35  -1
M  END
> <Name>
ligand_133

> <activity>
1

$$$$
ligand_134
  SciTegic10272118463D

 69 71  0  0  1  0            999 V2000
   23.4769   -8.1526    2.1724 C   0  0
   24.4601   -7.0841    2.7169 C   0  0
   23.6340   -9.4110    3.0746 C   0  0
   11.9033   -8.1799    1.0195 C   0  0
   12.3990   -9.3966    0.5337 C   0  0
   13.7666   -9.6724    0.5248 C   0  0
   14.6754   -8.7178    0.9971 C   0  0
   14.1824   -7.4875    1.4582 C   0  0
   12.8070   -7.1990    1.4764 C   0  0
   14.2469  -11.0233    0.0019 C   0  0
   14.4482  -12.0523    1.1231 C   0  0
   10.4209   -7.9619    0.9650 C   0  0
    9.6835   -8.5013    0.1393 O   0  0
    9.7672   -7.2135    2.1266 C   0  0
   12.3045   -5.9730    1.8873 O   0  0
   16.0196   -9.0480    0.9759 O   0  0
   16.9858   -8.1320    1.4821 C   0  0
   18.3759   -8.7743    1.3692 C   0  0
   19.5020   -7.8671    1.8965 C   0  0
   20.8946   -8.5118    1.7801 C   0  0
   22.0235   -7.5991    2.3123 C   0  0
   23.8134   -8.4411    0.6872 C   0  0
   24.1882   -9.6174    0.2271 N   0  0
   24.3786   -9.4458   -1.1230 N   0  0
   24.1033   -8.1377   -1.4177 N   0  0
   23.7456   -7.5138   -0.2467 N   0  5
   13.0980   -5.0309    2.6183 C   0  0  1  0  0  0
   12.3219   -3.7170    2.6911 C   0  0
   12.9024   -2.5283    2.2496 C   0  0
   12.1963   -1.3335    2.3156 C   0  0
   10.9041   -1.3159    2.8236 C   0  0
   10.3181   -2.4940    3.2665 C   0  0
   11.0237   -3.6888    3.2010 C   0  0
   13.4449   -5.5545    4.0294 C   0  0
   24.3807   -6.1430    2.1709 H   0  0
   24.2725   -6.8605    3.7681 H   0  0
   25.4959   -7.4171    2.6354 H   0  0
   23.0064  -10.2375    2.7404 H   0  0
   24.6625   -9.7754    3.0764 H   0  0
   23.3662   -9.2002    4.1108 H   0  0
   11.7176  -10.1519    0.1651 H   0  0
   14.8835   -6.7453    1.7979 H   0  0
   13.5334  -11.4093   -0.7279 H   0  0
   15.1767  -10.8915   -0.5535 H   0  0
   14.7875  -13.0063    0.7190 H   0  0
   15.1954  -11.7137    1.8418 H   0  0
   13.5197  -12.2338    1.6657 H   0  0
    8.7385   -7.5464    2.2660 H   0  0
   10.3070   -7.3959    3.0560 H   0  0
    9.7586   -6.1424    1.9279 H   0  0
   16.7710   -7.8959    2.5262 H   0  0
   16.9592   -7.2025    0.9102 H   0  0
   18.5701   -9.0270    0.3257 H   0  0
   18.3804   -9.7173    1.9182 H   0  0
   19.3061   -7.6153    2.9400 H   0  0
   19.4938   -6.9241    1.3473 H   0  0
   21.0836   -8.7619    0.7352 H   0  0
   20.8938   -9.4562    2.3244 H   0  0
   21.8224   -7.3723    3.3608 H   0  0
   21.9575   -6.6393    1.7961 H   0  0
   14.0177   -4.8293    2.0672 H   0  0
   13.9069   -2.5243    1.8516 H   0  0
   12.6529   -0.4173    1.9711 H   0  0
   10.3557   -0.3867    2.8744 H   0  0
    9.3132   -2.4817    3.6624 H   0  0
   10.5577   -4.5985    3.5505 H   0  0
   14.0062   -4.8102    4.5951 H   0  0
   12.5447   -5.7914    4.5972 H   0  0
   14.0535   -6.4571    3.9961 H   0  0
  1  2  1  0
  1  3  1  0
  1 21  1  0
  1 22  1  0
  2 35  1  0
  2 36  1  0
  2 37  1  0
  3 38  1  0
  3 39  1  0
  3 40  1  0
  4  5  2  0
  4  9  1  0
  4 12  1  0
  5  6  1  0
  5 41  1  0
  6  7  2  0
  6 10  1  0
  7  8  1  0
  7 16  1  0
  8  9  2  0
  8 42  1  0
  9 15  1  0
 10 11  1  0
 10 43  1  0
 10 44  1  0
 11 45  1  0
 11 46  1  0
 11 47  1  0
 12 13  2  0
 12 14  1  0
 14 48  1  0
 14 49  1  0
 14 50  1  0
 15 27  1  0
 16 17  1  0
 17 18  1  0
 17 51  1  0
 17 52  1  0
 18 19  1  0
 18 53  1  0
 18 54  1  0
 19 20  1  0
 19 55  1  0
 19 56  1  0
 20 21  1  0
 20 57  1  0
 20 58  1  0
 21 59  1  0
 21 60  1  0
 22 23  2  0
 22 26  1  0
 23 24  1  0
 24 25  2  0
 25 26  1  0
 27 28  1  0
 27 34  1  0
 27 61  1  0
 28 29  2  0
 28 33  1  0
 29 30  1  0
 29 62  1  0
 30 31  2  0
 30 63  1  0
 31 32  1  0
 31 64  1  0
 32 33  2  0
 32 65  1  0
 33 66  1  0
 34 67  1  0
 34 68  1  0
 34 69  1  0
M  CHG  1  26  -1
M  END
> <Name>
ligand_134

> <activity>
1

$$$$
ligand_135
  SciTegic10272118463D

 70 75  0  0  1  0            999 V2000
    5.3332    0.8194   -1.1792 F   0  0
    4.1374    1.2907   -0.7581 C   0  0
    3.0105    0.4759   -0.8610 C   0  0
    1.7817    0.9847   -0.4196 C   0  0
    0.5549    0.3877   -0.4399 N   0  0
   -0.2628    1.2695    0.0798 C   0  0
   -1.7258    1.0030    0.1828 C   0  0
   -2.3951    0.9906    1.4107 C   0  0
   -3.7671    0.7389    1.4532 C   0  0
   -4.4512    0.4954    0.2506 C   0  0
   -3.8062    0.4928   -0.9504 N   0  0
   -2.4719    0.7375   -0.9694 C   0  0
   -5.8490    0.2323    0.2241 N   0  0
   -6.6378   -0.0657   -0.8681 C   0  0
   -7.9226   -0.2355   -0.3914 C   0  0
   -7.8184   -0.0232    0.9828 C   0  0
   -6.5894    0.2553    1.3528 N   0  0
    0.3675    2.4505    0.4578 N   0  0
   -0.2674    3.6526    1.0399 C   0  0  1  0  0  0
    0.3552    4.0504    2.4270 C   0  0
   -0.4438    5.1837    3.1334 C   0  0
    0.1722    5.5958    4.4854 C   0  0
    0.3486    4.3917    5.4271 C   0  0
    1.1428    3.2601    4.7515 C   0  0
    0.5200    2.8500    3.4025 C   0  0
   -0.3136    4.7893   -0.0062 C   0  0
    0.4988    5.7149    0.0311 O   0  0
   -1.2576    4.6760   -0.9591 N   0  0
   -1.4545    5.5890   -2.0858 C   0  0
   -0.3705    5.4648   -3.1870 C   0  0
   -0.6040    6.4343   -4.3630 C   0  0
   -2.0186    6.2896   -4.9537 C   0  0
   -3.1023    6.4344   -3.8694 C   0  0
   -2.8709    5.4638   -2.6937 C   0  0
    1.7068    2.2917    0.1221 C   0  0
    2.8383    3.1144    0.2138 C   0  0
    4.0496    2.5822   -0.2347 C   0  0
    5.1650    3.3436   -0.1601 F   0  0
    3.0861   -0.5185   -1.2753 H   0  0
   -1.8580    1.1698    2.3291 H   0  0
   -4.2772    0.7329    2.4054 H   0  0
   -2.0006    0.7249   -1.9419 H   0  0
   -6.2236   -0.1293   -1.8637 H   0  0
   -8.8104   -0.4785   -0.9566 H   0  0
   -8.6280   -0.0721    1.6965 H   0  0
   -1.3072    3.4008    1.2441 H   0  0
    1.3567    4.4433    2.2502 H   0  0
   -0.5051    6.0685    2.4994 H   0  0
   -1.4730    4.8582    3.2931 H   0  0
    1.1418    6.0654    4.3122 H   0  0
   -0.4506    6.3530    4.9632 H   0  0
    0.8492    4.7043    6.3443 H   0  0
   -0.6320    4.0184    5.7268 H   0  0
    2.1725    3.5839    4.5914 H   0  0
    1.1959    2.3962    5.4153 H   0  0
   -0.4526    2.3951    3.5887 H   0  0
    1.1409    2.0712    2.9594 H   0  0
   -1.8721    3.8760   -0.9283 H   0  0
   -1.3859    6.5965   -1.6664 H   0  0
    0.6187    5.6456   -2.7641 H   0  0
   -0.3520    4.4402   -3.5622 H   0  0
   -0.4578    7.4599   -4.0203 H   0  0
    0.1431    6.2646   -5.1395 H   0  0
   -2.1735    7.0314   -5.7381 H   0  0
   -2.1135    5.3143   -5.4338 H   0  0
   -3.1069    7.4600   -3.4967 H   0  0
   -4.0885    6.2652   -4.3037 H   0  0
   -3.0297    4.4400   -3.0371 H   0  0
   -3.6236    5.6420   -1.9242 H   0  0
    2.7941    4.1199    0.6032 H   0  0
  1  2  1  0
  2  3  1  0
  2 37  2  0
  3  4  2  0
  3 39  1  0
  4  5  1  0
  4 35  1  0
  5  6  2  0
  6  7  1  0
  6 18  1  0
  7  8  2  0
  7 12  1  0
  8  9  1  0
  8 40  1  0
  9 10  2  0
  9 41  1  0
 10 11  1  0
 10 13  1  0
 11 12  2  0
 12 42  1  0
 13 14  1  0
 13 17  1  0
 14 15  2  0
 14 43  1  0
 15 16  1  0
 15 44  1  0
 16 17  2  0
 16 45  1  0
 18 19  1  0
 18 35  1  0
 19 20  1  0
 19 26  1  0
 19 46  1  0
 20 21  1  0
 20 25  1  0
 20 47  1  0
 21 22  1  0
 21 48  1  0
 21 49  1  0
 22 23  1  0
 22 50  1  0
 22 51  1  0
 23 24  1  0
 23 52  1  0
 23 53  1  0
 24 25  1  0
 24 54  1  0
 24 55  1  0
 25 56  1  0
 25 57  1  0
 26 27  2  0
 26 28  1  0
 28 29  1  0
 28 58  1  0
 29 30  1  0
 29 34  1  0
 29 59  1  0
 30 31  1  0
 30 60  1  0
 30 61  1  0
 31 32  1  0
 31 62  1  0
 31 63  1  0
 32 33  1  0
 32 64  1  0
 32 65  1  0
 33 34  1  0
 33 66  1  0
 33 67  1  0
 34 68  1  0
 34 69  1  0
 35 36  2  0
 36 37  1  0
 36 70  1  0
 37 38  1  0
M  END
> <Name>
ligand_135

> <activity>
1

$$$$
ligand_136
  SciTegic10272118463D

 64 67  0  0  1  0            999 V2000
   20.7455   -1.8062    0.8960 C   0  0
   14.2535   -5.8697    2.1531 C   0  0
   18.9238   -7.1734   -0.9473 C   0  0
   19.4081   -5.1921    0.3476 C   0  0
   15.3429   -3.8521   -0.6177 C   0  0
   13.9647   -6.7829    0.9415 C   0  0
   14.2263   -6.1329   -2.0795 O   0  0
   19.6400   -5.9921   -0.7738 C   0  0
   17.7609   -6.7756    1.1339 C   0  0
   11.6412   -5.8937    0.9282 C   0  0
   18.2540   -2.1436    0.7601 C   0  0
   11.7584   -2.4887   -0.8036 C   0  0
   11.9241   -5.0768   -2.0301 O   0  0
   17.4140   -2.8567   -0.0194 N   0  0
   13.9605   -3.8281   -0.8235 C   0  0
   17.9372   -1.1960    1.4805 O   0  0
   21.4609   -3.9023    0.5193 N   0  0
   20.1428   -3.9034    0.5188 C   0  0
   23.9056   -2.9972    2.0511 C   0  0
   17.9756   -7.5689    0.0017 C   0  0
   13.0542   -5.6126    2.8843 O   0  0
   17.1963   -8.8666   -0.2088 C   0  0
   12.0281   -4.9875    2.1137 C   0  0
   13.1927   -5.3797   -1.3582 S   0  0
   13.2602   -2.6254   -0.5927 C   0  0
   15.3264   -1.5299    0.0456 C   0  0
   21.8271   -2.6343    0.7600 N   0  0
   23.2450   -2.2713    0.8614 C   0  0
   18.4712   -5.5911    1.3039 C   0  0
   13.9528   -1.4897   -0.1621 C   0  0
   16.0259   -2.7201   -0.1773 C   0  0
   12.8255   -6.2888    0.1281 N   0  0
   19.6223   -2.5920    0.6838 C   0  0
   16.3551   -8.7114   -1.2311 F   0  0
   18.0344   -9.8644   -0.4931 F   0  0
   16.4877   -9.2154    0.8670 F   0  0
   23.9720   -2.5487   -0.4704 C   0  0
   20.8681   -0.7536    1.1063 H   0  0
   14.9704   -6.3440    2.8228 H   0  0
   14.6849   -4.9190    1.8393 H   0  0
   19.1036   -7.7793   -1.8239 H   0  0
   15.8923   -4.7677   -0.7881 H   0  0
   14.8409   -6.8916    0.3029 H   0  0
   13.7088   -7.7870    1.2811 H   0  0
   20.3648   -5.6925   -1.5172 H   0  0
   17.0422   -7.0676    1.8847 H   0  0
   11.1786   -6.8106    1.2948 H   0  0
   10.9038   -5.4249    0.2782 H   0  0
   11.2110   -3.2732   -0.2857 H   0  0
   11.3776   -1.5380   -0.4281 H   0  0
   11.5191   -2.5357   -1.8662 H   0  0
   17.8226   -3.6366   -0.5131 H   0  0
   24.9410   -2.6790    2.1775 H   0  0
   23.3838   -2.7848    2.9852 H   0  0
   23.9107   -4.0794    1.9131 H   0  0
   12.3848   -4.0157    1.7704 H   0  0
   11.1639   -4.8091    2.7536 H   0  0
   15.8283   -0.6278    0.3604 H   0  0
   23.2906   -1.1977    1.0532 H   0  0
   18.2889   -4.9815    2.1774 H   0  0
   13.4283   -0.5607    0.0097 H   0  0
   25.0092   -2.2148   -0.4266 H   0  0
   23.9809   -3.6123   -0.7132 H   0  0
   23.4960   -2.0234   -1.2995 H   0  0
  1 27  1  0
  1 33  2  0
  1 38  1  0
  2  6  1  0
  2 21  1  0
  2 39  1  0
  2 40  1  0
  3  8  2  0
  3 20  1  0
  3 41  1  0
  4 18  1  0
  4  8  1  0
  4 29  2  0
  5 15  2  0
  5 31  1  0
  5 42  1  0
  6 32  1  0
  6 43  1  0
  6 44  1  0
  7 24  2  0
  8 45  1  0
  9 29  1  0
  9 20  2  0
  9 46  1  0
 10 23  1  0
 10 32  1  0
 10 47  1  0
 10 48  1  0
 11 16  2  0
 11 14  1  0
 11 33  1  0
 12 25  1  0
 12 49  1  0
 12 50  1  0
 12 51  1  0
 13 24  2  0
 14 31  1  0
 14 52  1  0
 15 25  1  0
 15 24  1  0
 17 18  2  0
 17 27  1  0
 18 33  1  0
 19 28  1  0
 19 53  1  0
 19 54  1  0
 19 55  1  0
 20 22  1  0
 21 23  1  0
 22 34  1  0
 22 35  1  0
 22 36  1  0
 23 56  1  0
 23 57  1  0
 24 32  1  0
 25 30  2  0
 26 30  1  0
 26 31  2  0
 26 58  1  0
 27 28  1  0
 28 37  1  0
 28 59  1  0
 29 60  1  0
 30 61  1  0
 37 62  1  0
 37 63  1  0
 37 64  1  0
M  END
> <Name>
ligand_136

> <activity>
1

$$$$
ligand_137
  SciTegic10272118463D

 65 68  0  0  1  0            999 V2000
   20.8255   -1.8953    1.1127 C   0  0
   13.6730   -4.8537    3.5328 C   0  0
   18.1921   -6.5473   -1.4556 C   0  0
   19.1236   -4.3659   -0.9861 C   0  0
   16.0433   -4.3937    0.8941 C   0  0
   14.1900   -6.2931    3.3184 C   0  0
   16.1556   -7.3176    1.1553 O   0  0
   19.0406   -5.7340   -0.7094 C   0  0
   17.5200   -4.6347   -2.7753 C   0  0
   12.2835   -6.6613    1.7631 C   0  0
   18.2959   -1.6024    0.5865 C   0  0
   13.2475   -5.1430   -1.6293 C   0  0
   14.2211   -7.5669   -0.4596 O   0  0
   17.3170   -2.4037    1.3161 N   0  0
   15.0696   -5.1128    0.1940 C   0  0
   21.2653   -3.8060    0.0282 N   0  0
   20.0007   -3.4870   -0.1602 C   0  0
   17.4270   -5.9967   -2.4845 C   0  0
   12.2631   -4.7904    3.3132 O   0  0
   16.4950   -6.8855   -3.2869 C   0  0
   11.8615   -5.1986    2.0051 C   0  0
   14.8564   -6.8527    0.6533 S   0  0
   14.3277   -4.4525   -0.8083 C   0  0
   15.5601   -2.4104   -0.3884 C   0  0
   21.7699   -2.8338    0.7981 N   0  0
   23.1777   -2.8572    1.2104 C   0  0
   18.3668   -3.8212   -2.0271 C   0  0
   14.5793   -3.1056   -1.0849 C   0  0
   16.3054   -3.0585    0.5972 C   0  0
   13.7275   -6.8680    2.0299 N   0  0
   19.6423   -2.2939    0.5114 C   0  0
   23.4671   -4.0994    2.0776 C   0  0
   24.1041   -2.7737   -0.0199 C   0  0
   21.0697   -1.0469    1.7347 H   0  0
   13.8839   -4.5243    4.5502 H   0  0
   14.1631   -4.1510    2.8591 H   0  0
   18.1227   -7.6007   -1.2256 H   0  0
   16.6214   -4.8850    1.6635 H   0  0
   15.2780   -6.3397    3.3647 H   0  0
   13.8230   -6.9441    4.1124 H   0  0
   19.6199   -6.1647    0.0945 H   0  0
   16.9323   -4.2026   -3.5721 H   0  0
   11.7331   -7.3244    2.4312 H   0  0
   12.0504   -6.9921    0.7520 H   0  0
   17.9478   -1.3414   -0.4126 H   0  0
   18.3863   -0.6504    1.1106 H   0  0
   12.5295   -5.6524   -0.9900 H   0  0
   12.6821   -4.4362   -2.2380 H   0  0
   13.6925   -5.8698   -2.3087 H   0  0
   17.6952   -2.9100    2.1037 H   0  0
   15.7311   -6.3032   -3.8034 H   0  0
   17.0594   -7.4451   -4.0331 H   0  0
   15.9855   -7.5985   -2.6377 H   0  0
   12.3113   -4.5302    1.2698 H   0  0
   10.7797   -5.0960    1.9189 H   0  0
   15.7325   -1.3693   -0.6181 H   0  0
   23.3494   -1.9702    1.8229 H   0  0
   18.4268   -2.7669   -2.2536 H   0  0
   14.0168   -2.5881   -1.8485 H   0  0
   24.4928   -4.0880    2.4475 H   0  0
   22.8084   -4.1394    2.9461 H   0  0
   23.3321   -5.0253    1.5165 H   0  0
   25.1507   -2.7184    0.2814 H   0  0
   23.9960   -3.6446   -0.6681 H   0  0
   23.8905   -1.8869   -0.6182 H   0  0
  1 25  1  0
  1 31  2  0
  1 34  1  0
  2  6  1  0
  2 19  1  0
  2 35  1  0
  2 36  1  0
  3  8  2  0
  3 18  1  0
  3 37  1  0
  4 17  1  0
  4  8  1  0
  4 27  2  0
  5 15  2  0
  5 29  1  0
  5 38  1  0
  6 30  1  0
  6 39  1  0
  6 40  1  0
  7 22  2  0
  8 41  1  0
  9 27  1  0
  9 18  2  0
  9 42  1  0
 10 21  1  0
 10 30  1  0
 10 43  1  0
 10 44  1  0
 11 14  1  0
 11 31  1  0
 11 45  1  0
 11 46  1  0
 12 23  1  0
 12 47  1  0
 12 48  1  0
 12 49  1  0
 13 22  2  0
 14 29  1  0
 14 50  1  0
 15 23  1  0
 15 22  1  0
 16 17  2  0
 16 25  1  0
 17 31  1  0
 18 20  1  0
 19 21  1  0
 20 51  1  0
 20 52  1  0
 20 53  1  0
 21 54  1  0
 21 55  1  0
 22 30  1  0
 23 28  2  0
 24 28  1  0
 24 29  2  0
 24 56  1  0
 25 26  1  0
 26 32  1  0
 26 33  1  0
 26 57  1  0
 27 58  1  0
 28 59  1  0
 32 60  1  0
 32 61  1  0
 32 62  1  0
 33 63  1  0
 33 64  1  0
 33 65  1  0
M  END
> <Name>
ligand_137

> <activity>
1

$$$$
ligand_138
  SciTegic10272118463D

 69 72  0  0  1  0            999 V2000
   20.4473   -4.3326    0.6306 C   0  0
   13.8121   -7.2182    1.5738 C   0  0
   19.4983   -3.9667   -2.9453 C   0  0
   14.6900   -4.4621   -0.5284 C   0  0
   13.0183   -7.5357    0.2877 C   0  0
   12.7416   -5.8090   -2.2688 O   0  0
   18.5686   -5.1171   -3.3725 C   0  0
   11.0705   -6.3603    1.2947 C   0  0
   18.1694   -3.2336    0.0825 C   0  0
   11.6019   -2.5934    0.7823 C   0  0
   10.8425   -4.5341   -1.1813 O   0  0
   17.0350   -4.0869   -0.2448 N   0  0
   13.3450   -4.1485   -0.3084 C   0  0
   21.2298   -4.7629   -1.4212 N   0  0
   20.0483   -4.1874   -1.5358 C   0  0
   12.9275   -7.0801    2.6866 O   0  0
   11.9480   -6.0538    2.5244 C   0  0
   12.1181   -5.2492   -1.0631 S   0  0
   13.0315   -3.0252    0.4854 C   0  0
   15.3914   -2.5828    0.8067 C   0  0
   21.4654   -4.8571   -0.1116 N   0  0
   22.7193   -5.4258    0.3622 C   0  0
   18.8269   -2.5935   -3.1343 C   0  0
   14.0604   -2.2538    1.0326 C   0  0
   15.7133   -3.6929    0.0217 C   0  0
   11.8885   -6.5948    0.0803 N   0  0
   19.4879   -3.8891   -0.2655 C   0  0
   23.8586   -4.4168    0.3852 C   0  0
   24.6829   -4.2592   -0.7297 C   0  0
   25.7242   -3.3356   -0.7206 C   0  0
   25.9463   -2.5595    0.4128 C   0  0
   25.1336   -2.6989    1.5386 C   0  0
   24.0859   -3.6344    1.5187 C   0  0
   25.4297   -1.8837    2.6142 O   0  0
   24.6368   -1.9714    3.7932 C   0  0
   20.4928   -4.3213    1.7095 H   0  0
   14.5209   -8.0183    1.7872 H   0  0
   14.3875   -6.2985    1.4689 H   0  0
   20.3372   -3.9758   -3.6449 H   0  0
   14.9447   -5.3235   -1.1292 H   0  0
   13.6609   -7.5280   -0.5927 H   0  0
   12.5956   -8.5391    0.3476 H   0  0
   18.2373   -4.9933   -4.4041 H   0  0
   19.0774   -6.0798   -3.3086 H   0  0
   17.6777   -5.1726   -2.7476 H   0  0
   10.4849   -7.2635    1.4694 H   0  0
   10.3495   -5.5679    1.0992 H   0  0
   18.0642   -2.2761   -0.4273 H   0  0
   18.1380   -3.0050    1.1486 H   0  0
   11.0107   -3.4207    1.1697 H   0  0
   11.5610   -1.7999    1.5296 H   0  0
   11.1251   -2.2111   -0.1205 H   0  0
   17.1717   -4.7556   -0.9888 H   0  0
   12.4531   -5.0928    2.4204 H   0  0
   11.3358   -6.0035    3.4250 H   0  0
   16.1586   -1.9647    1.2476 H   0  0
   22.5583   -5.8356    1.3606 H   0  0
   22.9799   -6.2768   -0.2703 H   0  0
   18.6343   -2.3983   -4.1898 H   0  0
   17.8670   -2.5327   -2.6229 H   0  0
   19.4602   -1.7855   -2.7657 H   0  0
   13.8337   -1.3898    1.6406 H   0  0
   24.5135   -4.8549   -1.6152 H   0  0
   26.3556   -3.2209   -1.5893 H   0  0
   26.7544   -1.8426    0.4184 H   0  0
   23.4404   -3.7615    2.3743 H   0  0
   25.0100   -1.2609    4.5306 H   0  0
   23.5936   -1.7214    3.5939 H   0  0
   24.6900   -2.9661    4.2386 H   0  0
  1 21  1  0
  1 27  2  0
  1 36  1  0
  2  5  1  0
  2 16  1  0
  2 37  1  0
  2 38  1  0
  3 15  1  0
  3  7  1  0
  3 23  1  0
  3 39  1  0
  4 13  2  0
  4 25  1  0
  4 40  1  0
  5 26  1  0
  5 41  1  0
  5 42  1  0
  6 18  2  0
  7 43  1  0
  7 44  1  0
  7 45  1  0
  8 17  1  0
  8 26  1  0
  8 46  1  0
  8 47  1  0
  9 12  1  0
  9 27  1  0
  9 48  1  0
  9 49  1  0
 10 19  1  0
 10 50  1  0
 10 51  1  0
 10 52  1  0
 11 18  2  0
 12 25  1  0
 12 53  1  0
 13 19  1  0
 13 18  1  0
 14 15  2  0
 14 21  1  0
 15 27  1  0
 16 17  1  0
 17 54  1  0
 17 55  1  0
 18 26  1  0
 19 24  2  0
 20 24  1  0
 20 25  2  0
 20 56  1  0
 21 22  1  0
 22 28  1  0
 22 57  1  0
 22 58  1  0
 23 59  1  0
 23 60  1  0
 23 61  1  0
 24 62  1  0
 28 29  1  0
 28 33  2  0
 29 30  2  0
 29 63  1  0
 30 31  1  0
 30 64  1  0
 31 32  2  0
 31 65  1  0
 32 33  1  0
 32 34  1  0
 33 66  1  0
 34 35  1  0
 35 67  1  0
 35 68  1  0
 35 69  1  0
M  END
> <Name>
ligand_138

> <activity>
1

$$$$
ligand_139
  SciTegic10272118463D

 67 71  0  0  1  0            999 V2000
   -4.3573    0.8476   -0.7683 C   0  0
   -3.3345    0.9867   -1.9036 C   0  0
   -3.9452    1.2435   -3.3175 C   0  0  1  0  0  0
   -5.4165   -0.2270   -1.0749 C   0  0
   -6.1783   -0.0272   -2.4251 C   0  0  1  0  0  0
   -5.0972    0.1822   -3.5654 C   0  0  1  0  0  0
   -5.7569    0.2332   -4.9698 C   0  0
   -6.5740   -1.0389   -5.2735 C   0  0
   -6.9971   -1.3420   -2.7819 C   0  0  2  0  0  0
   -7.6621   -1.4035   -4.2148 C   0  0  2  0  0  0
   -8.4071   -3.3216   -1.9439 C   0  0  2  0  0  0
   -7.9715   -1.8645   -1.6866 C   0  0
   -9.0507   -3.5694   -3.3525 C   0  0  1  0  0  0
   -8.1431   -2.8962   -4.4697 C   0  0  1  0  0  0
   -8.6345   -3.1918   -5.9334 C   0  0
   -9.2135   -4.5920   -6.0895 C   0  0
   -8.9979   -5.1172   -3.6405 C   0  0  2  0  0  0
   -9.3905   -5.4338   -5.0546 C   0  0
  -10.0051   -6.7391   -5.1201 C   0  0
  -10.1210   -7.1584   -3.8418 O   0  0
   -9.9522   -6.0786   -2.9243 C   0  0
   -9.2102   -3.7674   -0.8643 O   0  0
  -10.4980   -2.9865   -3.3818 C   0  0
   -8.8402   -0.3887   -4.3797 C   0  0
   -7.1467    1.1836   -2.2450 C   0  0
   -4.4701    2.7021   -3.4019 C   0  0
   -2.8000    1.0094   -4.3605 C   0  0
   -1.6425    1.7904   -4.1182 O   0  0
  -10.3711   -7.3667   -6.1127 O   0  0
   -3.8371    0.5868    0.1544 H   0  0
   -4.8248    1.8107   -0.5682 H   0  0
   -2.6284    1.7774   -1.6441 H   0  0
   -2.7430    0.0692   -1.9262 H   0  0
   -4.9230   -1.2005   -1.0718 H   0  0
   -6.1137   -0.2462   -0.2370 H   0  0
   -4.5482   -0.7629   -3.5787 H   0  0
   -6.3725    1.1242   -5.0777 H   0  0
   -5.0073    0.3159   -5.7537 H   0  0
   -7.0264   -0.9285   -6.2602 H   0  0
   -5.8681   -1.8658   -5.3713 H   0  0
   -6.2223   -2.1122   -2.8090 H   0  0
   -7.4997   -3.9241   -1.8680 H   0  0
   -7.4920   -1.8433   -0.7096 H   0  0
   -8.8458   -1.2235   -1.5889 H   0  0
   -7.2129   -3.4681   -4.4155 H   0  0
   -9.4036   -2.4929   -6.2546 H   0  0
   -7.8131   -3.0848   -6.6418 H   0  0
   -9.5350   -4.8971   -7.0762 H   0  0
   -7.9791   -5.4823   -3.4886 H   0  0
   -9.5471   -6.4314   -1.9756 H   0  0
  -10.9280   -5.6339   -2.7301 H   0  0
   -9.3867   -4.7033   -0.9790 H   0  0
  -10.9473   -3.0459   -4.3726 H   0  0
  -11.1640   -3.5200   -2.7056 H   0  0
  -10.5478   -1.9502   -3.0639 H   0  0
   -9.3778   -0.1986   -3.4551 H   0  0
   -8.5122    0.5870   -4.7307 H   0  0
   -9.5807   -0.7081   -5.1086 H   0  0
   -7.4116    1.6654   -3.1820 H   0  0
   -8.0752    0.8936   -1.7565 H   0  0
   -6.7444    1.9678   -1.6101 H   0  0
   -4.9727    2.8957   -4.3493 H   0  0
   -3.6492    3.4166   -3.3329 H   0  0
   -5.1562    2.9670   -2.6045 H   0  0
   -2.4940   -0.0376   -4.3829 H   0  0
   -3.1255    1.2592   -5.3693 H   0  0
   -0.9934    1.5967   -4.7987 H   0  0
  1  2  1  0
  1  4  1  0
  1 30  1  0
  1 31  1  0
  2  3  1  0
  2 32  1  0
  2 33  1  0
  3  6  1  0
  3 26  1  0
  3 27  1  0
  4  5  1  0
  4 34  1  0
  4 35  1  0
  5  6  1  0
  5  9  1  0
  5 25  1  0
  6  7  1  0
  6 36  1  0
  7  8  1  0
  7 37  1  0
  7 38  1  0
  8 10  1  0
  8 39  1  0
  8 40  1  0
  9 10  1  0
  9 12  1  0
  9 41  1  0
 10 14  1  0
 10 24  1  0
 11 12  1  0
 11 13  1  0
 11 22  1  0
 11 42  1  0
 12 43  1  0
 12 44  1  0
 13 14  1  0
 13 17  1  0
 13 23  1  0
 14 15  1  0
 14 45  1  0
 15 16  1  0
 15 46  1  0
 15 47  1  0
 16 18  2  0
 16 48  1  0
 17 18  1  0
 17 21  1  0
 17 49  1  0
 18 19  1  0
 19 20  1  0
 19 29  2  0
 20 21  1  0
 21 50  1  0
 21 51  1  0
 22 52  1  0
 23 53  1  0
 23 54  1  0
 23 55  1  0
 24 56  1  0
 24 57  1  0
 24 58  1  0
 25 59  1  0
 25 60  1  0
 25 61  1  0
 26 62  1  0
 26 63  1  0
 26 64  1  0
 27 28  1  0
 27 65  1  0
 27 66  1  0
 28 67  1  0
M  END
> <Name>
ligand_139

> <activity>
1

$$$$
ligand_140
  SciTegic10272118463D

 57 59  0  0  1  0            999 V2000
   -0.3429    0.1518   -0.4505 C   0  0
   -0.2704    1.4175   -1.0255 C   0  0
   -1.4010    2.2240   -1.0808 C   0  0
   -2.6228    1.7804   -0.5729 C   0  0
   -2.7376    0.4920    0.0062 C   0  0
   -1.5745   -0.3010    0.0454 C   0  0
   -3.6641    2.6621   -0.6829 O   0  0
    0.8396   -0.6090   -0.4431 N   0  0
    1.1706   -1.6364    0.3669 C   0  0
    0.4886   -2.0841    1.2889 O   0  0
    2.5162   -2.2362    0.0665 C   0  0
    2.6334   -3.3109   -0.8343 C   0  0
    3.8862   -3.8629   -1.1017 C   0  0
    5.0402   -3.3719   -0.4907 C   0  0
    4.9198   -2.3039    0.4055 C   0  0
    3.6765   -1.7371    0.6873 C   0  0
    6.2553   -3.9984   -0.8284 N   0  0
    1.2615   -3.9943   -1.6469 Cl  0  0
   -4.0431   -0.1295    0.5997 C   0  0
   -4.4064   -1.4147   -0.1885 C   0  0
   -3.8107   -0.4964    2.0892 C   0  0
   -5.3030    0.7763    0.5669 C   0  0
    3.6313   -0.4163    1.8112 Cl  0  0
    7.5948   -3.6763   -0.3277 C   0  0
    7.7457   -3.9537    1.1882 C   0  0
    9.1798   -3.6459    1.6645 C   0  0
    9.6325   -2.2274    1.2581 C   0  0
    9.5018   -1.9908   -0.2614 C   0  0
    8.0730   -2.2714   -0.7694 C   0  0
    0.6618    1.7887   -1.4272 H   0  0
   -1.3255    3.2064   -1.5246 H   0  0
   -1.6410   -1.2948    0.4574 H   0  0
   -4.4794    2.3104   -0.3191 H   0  0
    1.5439   -0.3119   -1.1018 H   0  0
    3.9553   -4.6875   -1.7970 H   0  0
    5.7807   -1.8905    0.9024 H   0  0
    6.2038   -4.7630   -1.4860 H   0  0
   -5.3222   -1.8736    0.1874 H   0  0
   -4.5638   -1.1995   -1.2465 H   0  0
   -3.6306   -2.1780   -0.1260 H   0  0
   -4.7069   -0.9194    2.5458 H   0  0
   -3.0204   -1.2354    2.2219 H   0  0
   -3.5338    0.3815    2.6749 H   0  0
   -6.1645    0.2727    1.0090 H   0  0
   -5.1640    1.6940    1.1401 H   0  0
   -5.5978    1.0343   -0.4512 H   0  0
    8.2405   -4.3943   -0.8364 H   0  0
    7.0544   -3.3562    1.7785 H   0  0
    7.5039   -4.9950    1.4055 H   0  0
    9.2454   -3.7628    2.7469 H   0  0
    9.8675   -4.3786    1.2390 H   0  0
    9.0332   -1.4887    1.7928 H   0  0
   10.6646   -2.0644    1.5708 H   0  0
    9.7893   -0.9675   -0.5059 H   0  0
   10.2063   -2.6368   -0.7879 H   0  0
    8.0495   -2.1912   -1.8571 H   0  0
    7.4181   -1.4865   -0.3971 H   0  0
  1  2  2  0
  1  6  1  0
  1  8  1  0
  2  3  1  0
  2 30  1  0
  3  4  2  0
  3 31  1  0
  4  5  1  0
  4  7  1  0
  5  6  2  0
  5 19  1  0
  6 32  1  0
  7 33  1  0
  8  9  1  0
  8 34  1  0
  9 10  2  0
  9 11  1  0
 11 12  2  0
 11 16  1  0
 12 13  1  0
 12 18  1  0
 13 14  2  0
 13 35  1  0
 14 15  1  0
 14 17  1  0
 15 16  2  0
 15 36  1  0
 16 23  1  0
 17 24  1  0
 17 37  1  0
 19 20  1  0
 19 21  1  0
 19 22  1  0
 20 38  1  0
 20 39  1  0
 20 40  1  0
 21 41  1  0
 21 42  1  0
 21 43  1  0
 22 44  1  0
 22 45  1  0
 22 46  1  0
 24 25  1  0
 24 29  1  0
 24 47  1  0
 25 26  1  0
 25 48  1  0
 25 49  1  0
 26 27  1  0
 26 50  1  0
 26 51  1  0
 27 28  1  0
 27 52  1  0
 27 53  1  0
 28 29  1  0
 28 54  1  0
 28 55  1  0
 29 56  1  0
 29 57  1  0
M  END
> <Name>
ligand_140

> <activity>
1

$$$$
ligand_141
  SciTegic10272118463D

 65 67  0  0  1  0            999 V2000
   -4.0912   -1.1242   -0.0334 C   0  0
   -4.4776   -2.3898   -0.4783 C   0  0
   -3.5610   -3.4427   -0.4778 C   0  0
   -2.7849   -0.8979    0.4138 C   0  0
   -1.8655   -1.9550    0.4026 C   0  0
   -2.2550   -3.2277   -0.0325 C   0  0
   -1.2650   -4.2964   -0.0179 C   0  0
    0.0195   -4.0348    0.2550 C   0  0
    0.5046   -2.6047    0.5297 C   0  0  1  0  0  0
   -0.5843   -1.7071    0.8780 O   0  0
   -5.7597   -2.5959   -0.9135 O   0  0
   -2.3769    0.4835    0.9012 C   0  0
    1.4173   -2.6487    1.7692 C   0  0
    1.1581   -2.0713   -0.7708 C   0  0
    1.6741   -0.6209   -0.6872 C   0  0
    2.2055   -0.0977   -2.0114 C   0  0
    1.5284    0.6036   -2.9470 C   0  0
    2.2287    1.0995   -4.2093 C   0  0
    0.0532    0.9748   -2.8329 C   0  0
    2.0380    0.2049   -5.4546 C   0  0  2  0  0  0
    2.8103    0.6967   -6.6463 C   0  0
    1.9659    0.9305   -7.6574 C   0  0
    0.6175    0.6467   -7.1795 C   0  0
    0.6982    0.2327   -5.9044 O   0  0
   -0.4366    0.7586   -7.8037 O   0  0
    2.1930    1.4468   -9.0710 C   0  0
    2.0001    0.3868  -10.1703 C   0  0
    2.2434    0.9256  -11.5711 C   0  0
    3.3375    0.7523  -12.3436 C   0  0
    3.4146    1.3390  -13.7429 C   0  0
    4.5868   -0.0059  -11.9173 C   0  0
   -4.8111   -0.3183   -0.0354 H   0  0
   -3.8625   -4.4221   -0.8207 H   0  0
   -1.5657   -5.3148   -0.2185 H   0  0
    0.7285   -4.8497    0.2364 H   0  0
   -5.9212   -3.4982   -1.1974 H   0  0
   -2.0630    0.4380    1.9445 H   0  0
   -1.5430    0.8633    0.3105 H   0  0
   -3.1949    1.2011    0.8270 H   0  0
    1.7585   -1.6513    2.0467 H   0  0
    0.8947   -3.0601    2.6340 H   0  0
    2.3030   -3.2604    1.5933 H   0  0
    1.9827   -2.7244   -1.0619 H   0  0
    0.4300   -2.1309   -1.5825 H   0  0
    0.8909    0.0386   -0.3156 H   0  0
    2.4807   -0.5483    0.0427 H   0  0
    3.2482   -0.3198   -2.1895 H   0  0
    1.9048    2.1207   -4.4180 H   0  0
    3.2984    1.1729   -4.0043 H   0  0
   -0.0602    2.0587   -2.8068 H   0  0
   -0.5080    0.5974   -3.6863 H   0  0
   -0.4276    0.5699   -1.9445 H   0  0
    2.3139   -0.8240   -5.2189 H   0  0
    3.8826    0.8264   -6.6451 H   0  0
    1.5314    2.2968   -9.2487 H   0  0
    3.2088    1.8413   -9.1268 H   0  0
    2.6357   -0.4747   -9.9698 H   0  0
    0.9795    0.0028  -10.1437 H   0  0
    1.4195    1.5001  -11.9707 H   0  0
    4.2513    2.0342  -13.8180 H   0  0
    3.5604    0.5466  -14.4776 H   0  0
    2.5064    1.8804  -14.0118 H   0  0
    5.4725    0.6085  -12.0826 H   0  0
    4.5873   -0.2855  -10.8654 H   0  0
    4.6923   -0.9162  -12.5081 H   0  0
  1  2  1  0
  1  4  2  0
  1 32  1  0
  2  3  2  0
  2 11  1  0
  3  6  1  0
  3 33  1  0
  4  5  1  0
  4 12  1  0
  5  6  2  0
  5 10  1  0
  6  7  1  0
  7  8  2  0
  7 34  1  0
  8  9  1  0
  8 35  1  0
  9 10  1  0
  9 13  1  0
  9 14  1  0
 11 36  1  0
 12 37  1  0
 12 38  1  0
 12 39  1  0
 13 40  1  0
 13 41  1  0
 13 42  1  0
 14 15  1  0
 14 43  1  0
 14 44  1  0
 15 16  1  0
 15 45  1  0
 15 46  1  0
 16 17  2  0
 16 47  1  0
 17 18  1  0
 17 19  1  0
 18 20  1  0
 18 48  1  0
 18 49  1  0
 19 50  1  0
 19 51  1  0
 19 52  1  0
 20 21  1  0
 20 24  1  0
 20 53  1  0
 21 22  2  0
 21 54  1  0
 22 23  1  0
 22 26  1  0
 23 24  1  0
 23 25  2  0
 26 27  1  0
 26 55  1  0
 26 56  1  0
 27 28  1  0
 27 57  1  0
 27 58  1  0
 28 29  2  0
 28 59  1  0
 29 30  1  0
 29 31  1  0
 30 60  1  0
 30 61  1  0
 30 62  1  0
 31 63  1  0
 31 64  1  0
 31 65  1  0
M  END
> <Name>
ligand_141

> <activity>
1

$$$$
ligand_142
  SciTegic10272118463D

 68 71  0  0  1  0            999 V2000
   20.5534   -1.8997    0.2479 C   0  0
   14.4870   -6.2439    2.1387 C   0  0
   18.6240   -7.1403   -1.8204 C   0  0
   19.2503   -5.2783   -0.4135 C   0  0
   15.0668   -4.0812   -0.6656 C   0  0
   14.0462   -7.1274    0.9511 C   0  0
   13.8361   -6.3582   -2.0424 O   0  0
   19.3345   -5.9576   -1.6319 C   0  0
   17.7660   -6.9850    0.4363 C   0  0
   11.7207   -6.3260    1.3213 C   0  0
   18.0737   -2.3203    0.3882 C   0  0
   11.4444   -2.8679   -0.2825 C   0  0
   11.5274   -5.4061   -1.6165 O   0  0
   17.1626   -3.0196   -0.3206 N   0  0
   13.6694   -4.1098   -0.6708 C   0  0
   17.8217   -1.4314    1.2031 O   0  0
   21.2754   -3.9336   -0.3818 N   0  0
   19.9676   -3.9827   -0.2242 C   0  0
   23.8471   -3.0041    0.9775 C   0  0
   17.8366   -7.6521   -0.7876 C   0  0
   13.4052   -6.0573    3.0520 O   0  0
   17.0468   -8.9301   -1.0032 C   0  0
   12.2537   -5.4463    2.4697 C   0  0
   12.8918   -5.6751   -1.1493 S   0  0
   12.9649   -2.9470   -0.2939 C   0  0
   15.0587   -1.7871    0.0902 C   0  0
   21.6290   -2.6769   -0.0852 N   0  0
   23.0345   -2.2885   -0.1218 C   0  0
   18.4701   -5.7991    0.6225 C   0  0
   13.6690   -1.7982    0.0803 C   0  0
   15.7625   -2.9377   -0.2783 C   0  0
   12.7821   -6.6490    0.3374 N   0  0
   19.4346   -2.7083    0.1096 C   0  0
   26.1430   -3.2996    2.0770 C   0  0
   25.3289   -2.5886    0.9841 C   0  0
   27.4885   -2.8742    2.0295 O   0  0
   20.6746   -0.8635    0.5288 H   0  0
   15.3142   -6.7116    2.6724 H   0  0
   14.8336   -5.2674    1.8001 H   0  0
   18.6821   -7.6532   -2.7696 H   0  0
   15.6205   -4.9656   -0.9493 H   0  0
   14.8179   -7.1838    0.1842 H   0  0
   13.8755   -8.1503    1.2881 H   0  0
   19.9358   -5.5613   -2.4375 H   0  0
   17.1636   -7.3798    1.2407 H   0  0
   11.3488   -7.2715    1.7173 H   0  0
   10.8786   -5.8638    0.8082 H   0  0
   11.0080   -3.6898    0.2808 H   0  0
   11.0862   -1.9457    0.1769 H   0  0
   11.0557   -2.8935   -1.3008 H   0  0
   17.5282   -3.7535   -0.9096 H   0  0
   23.4082   -2.7886    1.9535 H   0  0
   23.7802   -4.0851    0.8415 H   0  0
   16.1209   -8.7116   -1.5363 H   0  0
   17.6193   -9.6480   -1.5917 H   0  0
   16.7890   -9.4067   -0.0565 H   0  0
   12.5218   -4.4505    2.1149 H   0  0
   11.4915   -5.3230    3.2391 H   0  0
   15.5682   -0.8772    0.3688 H   0  0
   23.4253   -2.5223   -1.1136 H   0  0
   23.0969   -1.2059   -0.0003 H   0  0
   18.4014   -5.2813    1.5685 H   0  0
   13.1402   -0.8994    0.3630 H   0  0
   25.7391   -3.0812    3.0664 H   0  0
   26.1105   -4.3816    1.9438 H   0  0
   25.7684   -2.8028    0.0083 H   0  0
   25.4010   -1.5086    1.1238 H   0  0
   27.9794   -3.3299    2.7175 H   0  0
  1 27  1  0
  1 33  2  0
  1 37  1  0
  2  6  1  0
  2 21  1  0
  2 38  1  0
  2 39  1  0
  3  8  2  0
  3 20  1  0
  3 40  1  0
  4 18  1  0
  4  8  1  0
  4 29  2  0
  5 15  2  0
  5 31  1  0
  5 41  1  0
  6 32  1  0
  6 42  1  0
  6 43  1  0
  7 24  2  0
  8 44  1  0
  9 29  1  0
  9 20  2  0
  9 45  1  0
 10 23  1  0
 10 32  1  0
 10 46  1  0
 10 47  1  0
 11 16  2  0
 11 14  1  0
 11 33  1  0
 12 25  1  0
 12 48  1  0
 12 49  1  0
 12 50  1  0
 13 24  2  0
 14 31  1  0
 14 51  1  0
 15 25  1  0
 15 24  1  0
 17 18  2  0
 17 27  1  0
 18 33  1  0
 19 28  1  0
 19 35  1  0
 19 52  1  0
 19 53  1  0
 20 22  1  0
 21 23  1  0
 22 54  1  0
 22 55  1  0
 22 56  1  0
 23 57  1  0
 23 58  1  0
 24 32  1  0
 25 30  2  0
 26 30  1  0
 26 31  2  0
 26 59  1  0
 27 28  1  0
 28 60  1  0
 28 61  1  0
 29 62  1  0
 30 63  1  0
 34 35  1  0
 34 36  1  0
 34 64  1  0
 34 65  1  0
 35 66  1  0
 35 67  1  0
 36 68  1  0
M  END
> <Name>
ligand_142

> <activity>
1

$$$$
ligand_143
  SciTegic10272118463D

 60 64  0  0  1  0            999 V2000
    5.7672    3.2648   -2.6687 C   0  0
    6.6305    2.3941   -1.7556 C   0  0
    7.4375    1.3832   -2.3081 C   0  0
    7.5160    1.0899   -4.0138 Cl  0  0
    8.2194    0.5716   -1.4930 C   0  0
    8.2244    0.7425   -0.1194 C   0  0
    7.4435    1.7421    0.4373 C   0  0
    6.6521    2.5776   -0.3557 C   0  0
    5.6854    3.8302    0.5354 S   0  0
    5.3143    4.9066   -0.3897 O   0  0
    6.4364    4.1596    1.7534 O   0  0
    4.1990    2.9998    1.0403 N   0  0
    3.2300    2.6814   -0.0397 C   0  0
    1.8641    2.2133    0.5073 C   0  0
    1.9652    1.0922    1.5828 C   0  0
    3.0252    1.4657    2.6594 C   0  0
    4.3702    1.9398    2.0688 C   0  0
    2.3091   -0.2673    0.9249 C   0  0
    3.3146   -0.5043    0.2515 O   0  0
    1.2982   -1.1198    1.2301 N   0  0
    1.2884   -2.5012    0.7301 C   0  0
    0.2964   -2.7322   -0.4016 C   0  0
   -0.8271   -3.5324   -0.1951 C   0  0
   -1.7247   -3.7541   -1.2360 C   0  0
   -1.5083   -3.1871   -2.5019 C   0  0
   -0.3660   -2.3953   -2.6984 C   0  0
    0.5318   -2.1734   -1.6580 C   0  0
   -2.4779   -3.4257   -3.6241 C   0  0
   -3.4800   -4.1414   -3.3936 O   0  0
   -2.2357   -2.8967   -4.7335 O   0  5
    0.2855   -0.4997    1.9626 C   0  0
   -0.9200   -1.0273    2.4331 C   0  0
   -1.7871   -0.2072    3.1579 C   0  0
   -1.4475    1.1247    3.4092 C   0  0
   -2.6327    2.2371    4.3990 Br  0  0
   -0.2392    1.6412    2.9356 C   0  0
    0.6265    0.8183    2.2089 C   0  0
    5.6663    2.8745   -3.6796 H   0  0
    4.7519    3.3496   -2.2880 H   0  0
    6.1950    4.2643   -2.7493 H   0  0
    8.8317   -0.2027   -1.9321 H   0  0
    8.8312    0.1072    0.5092 H   0  0
    7.4581    1.8635    1.5107 H   0  0
    3.0996    3.5701   -0.6574 H   0  0
    3.6803    1.9178   -0.6745 H   0  0
    1.3673    3.0803    0.9461 H   0  0
    1.2214    1.9070   -0.3206 H   0  0
    2.6303    2.2720    3.2801 H   0  0
    3.1970    0.6355    3.3474 H   0  0
    4.9057    1.1107    1.6058 H   0  0
    5.0142    2.3254    2.8596 H   0  0
    2.2752   -2.7921    0.3653 H   0  0
    1.0587   -3.1709    1.5597 H   0  0
   -1.0103   -3.9831    0.7693 H   0  0
   -2.5901   -4.3739   -1.0476 H   0  0
   -0.1625   -1.9453   -3.6600 H   0  0
    1.4070   -1.5631   -1.8288 H   0  0
   -1.1940   -2.0550    2.2497 H   0  0
   -2.7216   -0.6050    3.5253 H   0  0
    0.0138    2.6721    3.1350 H   0  0
  1  2  1  0
  1 38  1  0
  1 39  1  0
  1 40  1  0
  2  3  2  0
  2  8  1  0
  3  4  1  0
  3  5  1  0
  5  6  2  0
  5 41  1  0
  6  7  1  0
  6 42  1  0
  7  8  2  0
  7 43  1  0
  8  9  1  0
  9 10  2  0
  9 11  2  0
  9 12  1  0
 12 13  1  0
 12 17  1  0
 13 14  1  0
 13 44  1  0
 13 45  1  0
 14 15  1  0
 14 46  1  0
 14 47  1  0
 15 16  1  0
 15 18  1  0
 15 37  1  0
 16 17  1  0
 16 48  1  0
 16 49  1  0
 17 50  1  0
 17 51  1  0
 18 19  2  0
 18 20  1  0
 20 21  1  0
 20 31  1  0
 21 22  1  0
 21 52  1  0
 21 53  1  0
 22 23  2  0
 22 27  1  0
 23 24  1  0
 23 54  1  0
 24 25  2  0
 24 55  1  0
 25 26  1  0
 25 28  1  0
 26 27  2  0
 26 56  1  0
 27 57  1  0
 28 29  2  0
 28 30  1  0
 31 32  2  0
 31 37  1  0
 32 33  1  0
 32 58  1  0
 33 34  2  0
 33 59  1  0
 34 35  1  0
 34 36  1  0
 36 37  2  0
 36 60  1  0
M  CHG  1  30  -1
M  END
> <Name>
ligand_143

> <activity>
1

$$$$
ligand_144
  SciTegic10272118463D

 64 68  0  0  1  0            999 V2000
    8.9317  -13.7273   -4.5814 C   0  0
    8.4298  -14.8578   -3.9372 C   0  0
    8.2451  -14.9001   -2.5531 C   0  0
    9.2728  -12.5798   -3.8657 C   0  0
    9.0974  -12.5912   -2.4747 C   0  0
    8.5886  -13.7475   -1.8326 C   0  0
    8.5510  -13.4113   -0.4871 N   0  0
    9.0136  -12.1003   -0.4110 C   0  0
    9.3535  -11.5994   -1.5726 N   0  0
    8.0873  -14.2971    0.6038 C   0  0  1  0  0  0
    9.1892  -14.5299    1.6675 C   0  0
    9.0136  -13.9993    2.8932 N   0  0
   10.1960  -15.1677    1.3574 O   0  0
    9.9325  -14.1158    4.0269 C   0  0
    9.5874  -13.1161    5.1560 C   0  0
   10.5680  -13.1971    6.3449 C   0  0
   10.6849  -14.6294    6.9026 C   0  0
   11.0422  -15.6333    5.7886 C   0  0
   10.0654  -15.5536    4.5956 C   0  0
    9.5238  -14.9823    7.4581 F   0  0
   11.6174  -14.6651    7.8545 F   0  0
    9.1478  -11.3017    0.8361 C   0  0
    8.0319  -10.6794    1.4001 C   0  0
    8.1712   -9.9278    2.5637 C   0  0
    9.4274   -9.7917    3.1524 C   0  0
   10.5462  -10.4000    2.5854 C   0  0
   10.4067  -11.1544    1.4238 C   0  0
    6.6600  -13.9027    1.1346 C   0  0
    5.6617  -13.5055    0.0083 C   0  0
    4.2677  -13.1289    0.5480 C   0  0
    3.6718  -14.2417    1.4273 C   0  0
    4.6369  -14.6437    2.5558 C   0  0
    6.0277  -15.0236    2.0108 C   0  0
    9.5984   -8.8700    4.6010 Cl  0  0
    9.0579  -13.7412   -5.6543 H   0  0
    8.1767  -15.7269   -4.5267 H   0  0
    7.8544  -15.7862   -2.0756 H   0  0
    9.6599  -11.7077   -4.3718 H   0  0
    7.9657  -15.2823    0.1520 H   0  0
    8.1648  -13.4815    3.0661 H   0  0
   10.9095  -13.8209    3.6347 H   0  0
    9.5803  -12.0989    4.7663 H   0  0
    8.5727  -13.3048    5.5110 H   0  0
   11.5519  -12.8521    6.0230 H   0  0
   10.2521  -12.5138    7.1344 H   0  0
   12.0554  -15.4352    5.4354 H   0  0
   11.0559  -16.6472    6.1907 H   0  0
    9.0824  -15.9117    4.9063 H   0  0
   10.3991  -16.2404    3.8169 H   0  0
    7.0599  -10.7770    0.9385 H   0  0
    7.3081   -9.4513    3.0050 H   0  0
   11.5175  -10.2914    3.0451 H   0  0
   11.2730  -11.6282    0.9846 H   0  0
    6.7656  -13.0266    1.7739 H   0  0
    6.0422  -12.6592   -0.5644 H   0  0
    5.5644  -14.3302   -0.6998 H   0  0
    4.3424  -12.2085    1.1295 H   0  0
    3.5941  -12.9100   -0.2815 H   0  0
    2.7191  -13.9169    1.8474 H   0  0
    3.4514  -15.1138    0.8096 H   0  0
    4.7375  -13.8167    3.2605 H   0  0
    4.2188  -15.4767    3.1224 H   0  0
    5.9408  -15.9385    1.4221 H   0  0
    6.6709  -15.2750    2.8537 H   0  0
  1  2  2  0
  1  4  1  0
  1 35  1  0
  2  3  1  0
  2 36  1  0
  3  6  2  0
  3 37  1  0
  4  5  2  0
  4 38  1  0
  5  6  1  0
  5  9  1  0
  6  7  1  0
  7  8  1  0
  7 10  1  0
  8  9  2  0
  8 22  1  0
 10 11  1  0
 10 28  1  0
 10 39  1  0
 11 12  1  0
 11 13  2  0
 12 14  1  0
 12 40  1  0
 14 15  1  0
 14 19  1  0
 14 41  1  0
 15 16  1  0
 15 42  1  0
 15 43  1  0
 16 17  1  0
 16 44  1  0
 16 45  1  0
 17 18  1  0
 17 20  1  0
 17 21  1  0
 18 19  1  0
 18 46  1  0
 18 47  1  0
 19 48  1  0
 19 49  1  0
 22 23  2  0
 22 27  1  0
 23 24  1  0
 23 50  1  0
 24 25  2  0
 24 51  1  0
 25 26  1  0
 25 34  1  0
 26 27  2  0
 26 52  1  0
 27 53  1  0
 28 29  1  0
 28 33  1  0
 28 54  1  0
 29 30  1  0
 29 55  1  0
 29 56  1  0
 30 31  1  0
 30 57  1  0
 30 58  1  0
 31 32  1  0
 31 59  1  0
 31 60  1  0
 32 33  1  0
 32 61  1  0
 32 62  1  0
 33 63  1  0
 33 64  1  0
M  END
> <Name>
ligand_144

> <activity>
1

$$$$
ligand_145
  SciTegic10272118463D

 46 48  0  0  1  0            999 V2000
    1.5029   -0.3582    0.0561 C   0  0
    3.8592    0.0581    0.2600 C   0  0
    2.5414    0.5553    0.3027 C   0  0
    1.7475   -1.6659   -0.2263 N   0  0
    4.1147   -1.2465   -0.0482 N   0  0
    0.1663    0.0658    0.1008 N   0  0
   -0.9882   -0.7133   -0.0800 C   0  0
    4.9577    0.9189    0.4950 N   0  0
    3.0452   -2.0438   -0.2685 C   0  0
   -1.5864   -1.3593    1.0159 C   0  0
   -1.5571   -0.8526   -1.3579 C   0  0
   -2.7330   -2.1330    0.8290 C   0  0
   -2.7038   -1.6294   -1.5303 C   0  0
    5.5577   -0.1166    2.7389 C   0  0
    5.2132    1.1489    1.9242 C   0  0
   -3.2912   -2.2689   -0.4404 C   0  0
    5.3726   -0.0608    4.2375 C   0  0
    4.4297   -0.8854    3.3909 C   0  0
    2.2051    2.2289    0.6354 Cl  0  0
   -0.9345   -1.2271    2.6158 Cl  0  0
   -0.8687   -0.0818   -2.7484 Cl  0  0
   -4.7086   -3.2276   -0.6626 Cl  0  0
    6.1252    0.7242   -0.3760 C   0  0
    3.3352   -3.4953   -0.5906 C   0  0
    6.9947    1.9839   -0.5494 C   0  0
    8.1399    1.7746   -1.5491 C   0  0
    0.0215    1.0430    0.3082 H   0  0
   -3.1909   -2.6303    1.6719 H   0  0
   -3.1393   -1.7369   -2.5133 H   0  0
    6.4114   -0.6746    2.3526 H   0  0
    4.3423    1.6415    2.3587 H   0  0
    6.0168    1.8753    2.0381 H   0  0
    6.0925   -0.5786    4.8719 H   0  0
    4.9976    0.8558    4.6940 H   0  0
    3.4041   -0.5383    3.2593 H   0  0
    4.4993   -1.9726    3.4320 H   0  0
    5.7896    0.4026   -1.3640 H   0  0
    6.7387   -0.0869    0.0196 H   0  0
    3.8986   -3.9557    0.2213 H   0  0
    2.4202   -4.0712   -0.7363 H   0  0
    3.9293   -3.5671   -1.5019 H   0  0
    6.3730    2.8137   -0.8891 H   0  0
    7.4211    2.2879    0.4065 H   0  0
    8.7368    2.6812   -1.6528 H   0  0
    8.8069    0.9749   -1.2251 H   0  0
    7.7604    1.5143   -2.5378 H   0  0
  1  3  2  0
  1  4  1  0
  1  6  1  0
  2  3  1  0
  2  5  2  0
  2  8  1  0
  3 19  1  0
  4  9  2  0
  5  9  1  0
  6  7  1  0
  6 27  1  0
  7 10  2  0
  7 11  1  0
  8 15  1  0
  8 23  1  0
  9 24  1  0
 10 12  1  0
 10 20  1  0
 11 13  2  0
 11 21  1  0
 12 16  2  0
 12 28  1  0
 13 16  1  0
 13 29  1  0
 14 15  1  0
 14 17  1  0
 14 18  1  0
 14 30  1  0
 15 31  1  0
 15 32  1  0
 16 22  1  0
 17 18  1  0
 17 33  1  0
 17 34  1  0
 18 35  1  0
 18 36  1  0
 23 25  1  0
 23 37  1  0
 23 38  1  0
 24 39  1  0
 24 40  1  0
 24 41  1  0
 25 26  1  0
 25 42  1  0
 25 43  1  0
 26 44  1  0
 26 45  1  0
 26 46  1  0
M  END
> <Name>
ligand_145

> <activity>
1

$$$$
ligand_146
  SciTegic10272118463D

 72 74  0  0  1  0            999 V2000
   43.8491  -16.9183    1.7477 C   0  0
   45.3738  -16.6780    1.8976 C   0  0
   43.3929  -17.7167    3.0032 C   0  0
   34.8940   -9.5608    0.7214 C   0  0
   34.4040  -10.8724    0.6503 C   0  0
   35.2517  -11.9741    0.7723 C   0  0
   36.6264  -11.7830    0.9564 C   0  0
   37.1221  -10.4720    1.0191 C   0  0
   36.2775   -9.3546    0.9008 C   0  0
   34.6588  -13.3779    0.6878 C   0  0
   34.7357  -13.9668   -0.7279 C   0  0
   33.9375   -8.4148    0.5461 C   0  0
   34.2608   -7.2902    0.1638 O   0  0
   32.4957   -8.6249    1.0132 C   0  0
   36.7500   -8.0539    0.9739 O   0  0
   37.4213  -12.9115    1.0612 O   0  0
   38.8297  -12.7774    1.2276 C   0  0
   39.4500  -14.1802    1.2977 C   0  0
   40.9780  -14.1536    1.4809 C   0  0
   41.5978  -15.5607    1.5478 C   0  0
   43.1326  -15.5309    1.7334 C   0  0
   43.5845  -17.6859    0.4274 C   0  0
   43.0340  -18.8812    0.3626 N   0  0
   42.9752  -19.1922   -0.9747 N   0  0
   43.5098  -18.1405   -1.6689 N   0  0
   43.8939  -17.1901   -0.7537 N   0  5
   38.1489   -7.7931    1.0602 C   0  0
   38.3870   -6.2696    1.0461 C   0  0
   39.8820   -5.9274    1.2588 C   0  0
   40.1464   -4.4086    1.2278 C   0  0
   39.6035   -3.7582   -0.0587 C   0  0
   38.1136   -4.0839   -0.2753 C   0  0
   37.8466   -5.6022   -0.2442 C   0  0
   45.9268  -17.6186    1.9053 H   0  0
   45.7728  -16.0767    1.0794 H   0  0
   45.6112  -16.1540    2.8246 H   0  0
   43.9400  -18.6557    3.1001 H   0  0
   43.5585  -17.1524    3.9220 H   0  0
   42.3333  -17.9705    2.9665 H   0  0
   33.3513  -11.0575    0.4890 H   0  0
   38.1785  -10.3211    1.1640 H   0  0
   35.1710  -14.0350    1.3922 H   0  0
   33.6204  -13.3589    1.0224 H   0  0
   34.3023  -14.9667   -0.7572 H   0  0
   34.1925  -13.3491   -1.4440 H   0  0
   35.7688  -14.0447   -1.0687 H   0  0
   31.9783   -7.6702    1.1106 H   0  0
   31.9497   -9.2432    0.3010 H   0  0
   32.4793   -9.1179    1.9853 H   0  0
   39.2576  -12.2249    0.3889 H   0  0
   39.0497  -12.2282    2.1451 H   0  0
   38.9939  -14.7330    2.1204 H   0  0
   39.2018  -14.7274    0.3868 H   0  0
   41.4313  -13.5984    0.6580 H   0  0
   41.2245  -13.6061    2.3920 H   0  0
   41.1360  -16.1120    2.3670 H   0  0
   41.3467  -16.1029    0.6351 H   0  0
   43.5602  -14.9182    0.9374 H   0  0
   43.3610  -14.9966    2.6573 H   0  0
   38.6755   -8.2597    0.2252 H   0  0
   38.5418   -8.2182    1.9857 H   0  0
   37.8350   -5.8507    1.8898 H   0  0
   40.2290   -6.3358    2.2091 H   0  0
   40.4818   -6.4095    0.4847 H   0  0
   39.6769   -3.9419    2.0952 H   0  0
   41.2157   -4.2146    1.3203 H   0  0
   39.7476   -2.6778   -0.0203 H   0  0
   40.1800   -4.1121   -0.9149 H   0  0
   37.5202   -3.5971    0.5002 H   0  0
   37.7750   -3.6657   -1.2240 H   0  0
   38.3097   -6.0652   -1.1172 H   0  0
   36.7745   -5.7802   -0.3412 H   0  0
  1  2  1  0
  1  3  1  0
  1 21  1  0
  1 22  1  0
  2 34  1  0
  2 35  1  0
  2 36  1  0
  3 37  1  0
  3 38  1  0
  3 39  1  0
  4  5  2  0
  4  9  1  0
  4 12  1  0
  5  6  1  0
  5 40  1  0
  6  7  2  0
  6 10  1  0
  7  8  1  0
  7 16  1  0
  8  9  2  0
  8 41  1  0
  9 15  1  0
 10 11  1  0
 10 42  1  0
 10 43  1  0
 11 44  1  0
 11 45  1  0
 11 46  1  0
 12 13  2  0
 12 14  1  0
 14 47  1  0
 14 48  1  0
 14 49  1  0
 15 27  1  0
 16 17  1  0
 17 18  1  0
 17 50  1  0
 17 51  1  0
 18 19  1  0
 18 52  1  0
 18 53  1  0
 19 20  1  0
 19 54  1  0
 19 55  1  0
 20 21  1  0
 20 56  1  0
 20 57  1  0
 21 58  1  0
 21 59  1  0
 22 23  2  0
 22 26  1  0
 23 24  1  0
 24 25  2  0
 25 26  1  0
 27 28  1  0
 27 60  1  0
 27 61  1  0
 28 29  1  0
 28 33  1  0
 28 62  1  0
 29 30  1  0
 29 63  1  0
 29 64  1  0
 30 31  1  0
 30 65  1  0
 30 66  1  0
 31 32  1  0
 31 67  1  0
 31 68  1  0
 32 33  1  0
 32 69  1  0
 32 70  1  0
 33 71  1  0
 33 72  1  0
M  CHG  1  26  -1
M  END
> <Name>
ligand_146

> <activity>
1

$$$$
ligand_147
  SciTegic10272118463D

 50 53  0  0  1  0            999 V2000
   13.3990  -15.0366   -4.6288 Cl  0  0
   11.5426  -22.7880    1.2140 O   0  0
    9.8818  -21.2569    0.8985 O   0  0
   11.9684  -20.6011    1.7445 N   0  0
   17.0043  -18.5204    1.1273 N   0  0
   13.9850  -18.8042    1.0070 C   0  0
   14.2687  -19.7506    2.1819 C   0  0
   12.5122  -18.3474    0.9840 C   0  0
   14.8845  -18.4755    0.0380 C   0  0
   13.3466  -20.9974    2.1117 C   0  0
   11.5753  -19.1918    1.8889 C   0  0
   14.4940  -17.6255   -1.1073 C   0  0
   16.2978  -18.9302    0.0393 C   0  0
   14.4195  -18.1950   -2.3873 C   0  0
   14.7068  -19.6835   -2.5396 C   0  0
   16.1787  -20.0805   -2.3039 C   0  0
   16.9070  -19.6433   -1.0217 C   0  0
   14.2352  -16.2639   -0.9222 C   0  0
   11.0328  -21.5282    1.2528 C   0  0
   14.0805  -17.3812   -3.4700 C   0  0
   18.2638  -19.9650   -0.8924 C   0  0
   13.8942  -15.4644   -2.0077 C   0  0
   13.8188  -16.0264   -3.2788 C   0  0
   18.9818  -19.5721    0.2310 C   0  0
   18.3128  -18.8495    1.2101 C   0  0
   10.7612  -23.8807    0.7483 C   0  0
   11.5942  -25.1642    0.8141 C   0  0
   15.3007  -20.0924    2.2324 H   0  0
   14.0956  -19.2104    3.1138 H   0  0
   12.4456  -17.3021    1.2865 H   0  0
   12.1370  -18.3887   -0.0398 H   0  0
   13.3470  -21.5232    3.0672 H   0  0
   13.7423  -21.6999    1.3764 H   0  0
   10.5294  -18.9968    1.6465 H   0  0
   11.7051  -18.9013    2.9322 H   0  0
   14.0606  -20.2420   -1.8600 H   0  0
   14.4039  -20.0086   -3.5361 H   0  0
   16.2516  -21.1674   -2.3646 H   0  0
   16.7630  -19.7086   -3.1472 H   0  0
   14.3030  -15.8253    0.0630 H   0  0
   14.0181  -17.8016   -4.4632 H   0  0
   18.7671  -20.5164   -1.6736 H   0  0
   13.6938  -14.4129   -1.8631 H   0  0
   20.0293  -19.8138    0.3350 H   0  0
   18.8337  -18.5151    2.0954 H   0  0
    9.8639  -23.9849    1.3605 H   0  0
   10.4373  -23.6971   -0.2775 H   0  0
   11.0167  -26.0188    0.4615 H   0  0
   12.4871  -25.0869    0.1930 H   0  0
   11.9120  -25.3760    1.8355 H   0  0
  1 23  1  0
  2 19  1  0
  2 26  1  0
  3 19  2  0
  4 10  1  0
  4 11  1  0
  4 19  1  0
  5 13  2  0
  5 25  1  0
  6  7  1  0
  6  8  1  0
  6  9  2  0
  7 10  1  0
  7 28  1  0
  7 29  1  0
  8 11  1  0
  8 30  1  0
  8 31  1  0
  9 12  1  0
  9 13  1  0
 10 32  1  0
 10 33  1  0
 11 34  1  0
 11 35  1  0
 12 14  2  0
 12 18  1  0
 13 17  1  0
 14 15  1  0
 14 20  1  0
 15 16  1  0
 15 36  1  0
 15 37  1  0
 16 17  1  0
 16 38  1  0
 16 39  1  0
 17 21  2  0
 18 22  2  0
 18 40  1  0
 20 23  2  0
 20 41  1  0
 21 24  1  0
 21 42  1  0
 22 23  1  0
 22 43  1  0
 24 25  2  0
 24 44  1  0
 25 45  1  0
 26 27  1  0
 26 46  1  0
 26 47  1  0
 27 48  1  0
 27 49  1  0
 27 50  1  0
M  END
> <Name>
ligand_147

> <activity>
1

$$$$
ligand_148
  SciTegic10272118463D

 59 63  0  0  1  0            999 V2000
    4.4116   -0.9008    0.5540 C   0  0
    4.2084   -2.2110    0.9917 C   0  0
    5.2596   -3.1256    1.0902 C   0  0
    5.6807   -0.4494    0.1935 C   0  0
    6.7539   -1.3459    0.2824 C   0  0
    6.5375   -2.6724    0.7308 C   0  0
    7.7976   -3.2610    0.6928 N   0  0
    8.6637   -2.2724    0.2382 C   0  0
    8.0675   -1.1346   -0.0196 N   0  0
    8.1538   -4.6631    1.0158 C   0  0  1  0  0  0
    7.5458   -5.1756    2.3487 C   0  0
    8.0071   -5.5719   -0.2548 C   0  0
    7.7851   -4.3988    3.4296 N   0  0
    6.9129   -6.2308    2.3817 O   0  0
    8.7437   -6.9337   -0.1212 C   0  0
    8.6787   -7.7689   -1.4148 C   0  0
    7.2287   -7.9681   -1.8919 C   0  0
    6.4989   -6.6227   -2.0581 C   0  0
    6.5557   -5.7691   -0.7751 C   0  0
    3.3620   -0.0514    0.4748 F   0  0
    2.9612   -2.6105    1.3294 F   0  0
   10.1296   -2.4471    0.0269 C   0  0
   10.9758   -2.7214    1.1055 C   0  0
   12.3433   -2.8777    0.8956 C   0  0
   12.8640   -2.7517   -0.3911 C   0  0
   12.0275   -2.4671   -1.4690 C   0  0
   10.6598   -2.3110   -1.2592 C   0  0
   14.5589   -2.9459   -0.6512 Cl  0  0
    7.3461   -4.5651    4.7557 C   0  0
    8.0258   -3.8502    5.7414 C   0  0
    7.6965   -3.9104    7.0525 N   0  0
    6.6488   -4.6965    7.4338 C   0  0
    5.9124   -5.4325    6.4912 C   0  0
    6.2608   -5.3633    5.1443 C   0  0
    6.2890   -4.7590    8.8928 C   0  0
    6.9721   -4.0889    9.7026 O   0  5
    5.3208   -5.4804    9.2293 O   0  0
    5.0777   -4.1350    1.4281 H   0  0
    5.8280    0.5650   -0.1464 H   0  0
    9.2195   -4.6604    1.2365 H   0  0
    8.5349   -5.0457   -1.0539 H   0  0
    8.3714   -3.5915    3.2801 H   0  0
    9.7882   -6.7689    0.1472 H   0  0
    8.3145   -7.5216    0.6900 H   0  0
    9.2537   -7.2717   -2.1975 H   0  0
    9.1548   -8.7374   -1.2567 H   0  0
    7.2180   -8.5171   -2.8342 H   0  0
    6.6906   -8.5868   -1.1719 H   0  0
    6.9510   -6.0670   -2.8812 H   0  0
    5.4606   -6.7954   -2.3438 H   0  0
    5.9404   -6.2421   -0.0098 H   0  0
    6.0930   -4.8060   -0.9862 H   0  0
   10.5766   -2.8122    2.1054 H   0  0
   12.9965   -3.0930    1.7286 H   0  0
   12.4360   -2.3664   -2.4638 H   0  0
   10.0126   -2.0889   -2.0957 H   0  0
    8.8618   -3.2108    5.4962 H   0  0
    5.0761   -6.0498    6.7876 H   0  0
    5.6718   -5.9193    4.4319 H   0  0
  1  2  2  0
  1  4  1  0
  1 20  1  0
  2  3  1  0
  2 21  1  0
  3  6  2  0
  3 38  1  0
  4  5  2  0
  4 39  1  0
  5  6  1  0
  5  9  1  0
  6  7  1  0
  7  8  1  0
  7 10  1  0
  8  9  2  0
  8 22  1  0
 10 11  1  0
 10 12  1  0
 10 40  1  0
 11 13  1  0
 11 14  2  0
 12 15  1  0
 12 19  1  0
 12 41  1  0
 13 29  1  0
 13 42  1  0
 15 16  1  0
 15 43  1  0
 15 44  1  0
 16 17  1  0
 16 45  1  0
 16 46  1  0
 17 18  1  0
 17 47  1  0
 17 48  1  0
 18 19  1  0
 18 49  1  0
 18 50  1  0
 19 51  1  0
 19 52  1  0
 22 23  2  0
 22 27  1  0
 23 24  1  0
 23 53  1  0
 24 25  2  0
 24 54  1  0
 25 26  1  0
 25 28  1  0
 26 27  2  0
 26 55  1  0
 27 56  1  0
 29 30  2  0
 29 34  1  0
 30 31  1  0
 30 57  1  0
 31 32  2  0
 32 33  1  0
 32 35  1  0
 33 34  2  0
 33 58  1  0
 34 59  1  0
 35 36  1  0
 35 37  2  0
M  CHG  1  36  -1
M  END
> <Name>
ligand_148

> <activity>
1

$$$$
ligand_149
  SciTegic10272118463D

 60 62  0  0  1  0            999 V2000
   12.4005  -21.3862   -2.1907 C   0  0
   13.2305  -21.4406   -3.4998 C   0  0
   13.3811  -21.6992   -1.0234 C   0  0
    6.1987  -12.8546    2.7119 C   0  0
    6.1052  -13.9874    3.5290 C   0  0
    6.7445  -15.1818    3.1857 C   0  0
    7.5166  -15.2555    2.0165 C   0  0
    7.6330  -14.1112    1.2111 C   0  0
    6.9934  -12.9202    1.5536 C   0  0
    6.5970  -16.3905    4.1054 C   0  0
    7.7549  -16.5154    5.1055 C   0  0
    5.5061  -11.6003    3.1522 C   0  0
    4.5629  -10.8796    2.2278 C   0  0
    7.1908  -11.8316    0.7406 O   0  0
    8.1338  -16.4607    1.7300 O   0  0
    8.9421  -16.5840    0.5637 C   0  0
    9.4963  -18.0146    0.5013 C   0  0
   10.3933  -18.2588   -0.7254 C   0  0
   10.9442  -19.6944   -0.7883 C   0  0
   11.8455  -19.9367   -2.0210 C   0  0
   11.2397  -22.4093   -2.2814 C   0  0
   11.0722  -23.4156   -1.4477 N   0  0
    9.9344  -24.0618   -1.8677 N   0  0
    9.4593  -23.3944   -2.9643 N   0  0
   10.3083  -22.3424   -3.2112 N   0  5
    5.6605  -11.2089    4.3120 O   0  0
    4.0931   -9.6059    2.5654 C   0  0
    3.2005   -8.9330    1.7405 C   0  0
    2.7518   -9.5265    0.5698 C   0  0
    3.1923  -10.7968    0.2287 C   0  0
    4.0850  -11.4706    1.0528 C   0  0
   12.6301  -21.1809   -4.3729 H   0  0
   14.0723  -20.7472   -3.4736 H   0  0
   13.6365  -22.4383   -3.6734 H   0  0
   12.8770  -21.7214   -0.0570 H   0  0
   13.8590  -22.6714   -1.1533 H   0  0
   14.1771  -20.9564   -0.9554 H   0  0
    5.5218  -13.9496    4.4394 H   0  0
    8.2320  -14.1301    0.3136 H   0  0
    5.6504  -16.3281    4.6445 H   0  0
    6.5228  -17.2995    3.5066 H   0  0
    7.6199  -17.3843    5.7500 H   0  0
    8.7105  -16.6301    4.5924 H   0  0
    7.8221  -15.6352    5.7458 H   0  0
    7.7684  -12.0214   -0.0016 H   0  0
    9.7661  -15.8687    0.5993 H   0  0
    8.3496  -16.3763   -0.3294 H   0  0
    8.6644  -18.7206    0.4907 H   0  0
   10.0604  -18.2203    1.4123 H   0  0
   11.2250  -17.5525   -0.7129 H   0  0
    9.8275  -18.0493   -1.6348 H   0  0
   10.1082  -20.3953   -0.7991 H   0  0
   11.5024  -19.8997    0.1252 H   0  0
   12.6786  -19.2322   -1.9871 H   0  0
   11.2800  -19.6652   -2.9146 H   0  0
    4.4215   -9.1173    3.4722 H   0  0
    2.8537   -7.9468    2.0123 H   0  0
    2.0569   -9.0038   -0.0709 H   0  0
    2.8370  -11.2652   -0.6774 H   0  0
    4.3926  -12.4642    0.7613 H   0  0
  1  2  1  0
  1  3  1  0
  1 20  1  0
  1 21  1  0
  2 32  1  0
  2 33  1  0
  2 34  1  0
  3 35  1  0
  3 36  1  0
  3 37  1  0
  4  5  2  0
  4  9  1  0
  4 12  1  0
  5  6  1  0
  5 38  1  0
  6  7  2  0
  6 10  1  0
  7  8  1  0
  7 15  1  0
  8  9  2  0
  8 39  1  0
  9 14  1  0
 10 11  1  0
 10 40  1  0
 10 41  1  0
 11 42  1  0
 11 43  1  0
 11 44  1  0
 12 13  1  0
 12 26  2  0
 13 27  2  0
 13 31  1  0
 14 45  1  0
 15 16  1  0
 16 17  1  0
 16 46  1  0
 16 47  1  0
 17 18  1  0
 17 48  1  0
 17 49  1  0
 18 19  1  0
 18 50  1  0
 18 51  1  0
 19 20  1  0
 19 52  1  0
 19 53  1  0
 20 54  1  0
 20 55  1  0
 21 22  2  0
 21 25  1  0
 22 23  1  0
 23 24  2  0
 24 25  1  0
 27 28  1  0
 27 56  1  0
 28 29  2  0
 28 57  1  0
 29 30  1  0
 29 58  1  0
 30 31  2  0
 30 59  1  0
 31 60  1  0
M  CHG  1  25  -1
M  END
> <Name>
ligand_149

> <activity>
1

$$$$
ligand_150
  SciTegic10272118463D

 54 55  0  0  1  0            999 V2000
    2.6833    3.3557   -4.0645 C   0  0
    1.6167    2.3222   -3.6761 C   0  0
    1.4934    2.1447   -2.1653 C   0  0
    0.5272    2.8749   -1.4690 C   0  0
    0.3841    2.7416   -0.0845 C   0  0
   -0.6886    3.5579    0.6302 C   0  0
   -1.9968    2.7770    0.8191 C   0  0
    1.2145    1.8608    0.6272 C   0  0
    1.0219    1.7600    1.9941 O   0  0
    1.8249    0.8656    2.7584 C   0  0
    1.3870    0.9485    4.2278 C   0  0
    2.1953    0.0182    5.1499 C   0  0
    1.7533    0.1019    6.6217 C   0  0
    2.5679   -0.8325    7.5458 C   0  0
    2.1414   -0.8544    9.0478 C   0  0
    3.0394   -1.8745    9.7948 C   0  0
    2.4217    0.5400    9.6796 C   0  0
    0.6591   -1.2840    9.1911 C   0  0
   -0.2697   -0.5573    9.7785 N   0  5
   -1.4294   -1.2888    9.6853 N   0  0
   -1.1334   -2.4535    9.0299 N   0  0
    0.2063   -2.4303    8.7246 N   0  0
    2.1874    1.1321   -0.0771 C   0  0
    2.3292    1.2715   -1.4569 C   0  0
    3.2992    0.5437   -2.0961 O   0  0
    2.7442    3.4634   -5.1477 H   0  0
    2.4532    4.3368   -3.6474 H   0  0
    3.6707    3.0636   -3.7052 H   0  0
    0.6510    2.6209   -4.0876 H   0  0
    1.8373    1.3617   -4.1435 H   0  0
   -0.1193    3.5526   -2.0085 H   0  0
   -0.3108    3.8904    1.5982 H   0  0
   -0.8847    4.4746    0.0718 H   0  0
   -2.7434    3.3866    1.3286 H   0  0
   -2.4172    2.4705   -0.1394 H   0  0
   -1.8390    1.8792    1.4180 H   0  0
    1.7038   -0.1559    2.3927 H   0  0
    2.8788    1.1360    2.6693 H   0  0
    1.4848    1.9788    4.5732 H   0  0
    0.3267    0.7011    4.2999 H   0  0
    2.0968   -1.0113    4.8014 H   0  0
    3.2554    0.2662    5.0760 H   0  0
    1.8478    1.1334    6.9611 H   0  0
    0.6929   -0.1456    6.6884 H   0  0
    2.5076   -1.8459    7.1444 H   0  0
    3.6225   -0.5603    7.4735 H   0  0
    2.7779   -1.9366   10.8523 H   0  0
    2.9445   -2.8793    9.3804 H   0  0
    4.0944   -1.6031    9.7363 H   0  0
    2.2230    0.5398   10.7524 H   0  0
    3.4614    0.8417    9.5456 H   0  0
    1.7997    1.3218    9.2430 H   0  0
    2.8474    0.4482    0.4342 H   0  0
    3.3269    0.7228   -3.0383 H   0  0
  1  2  1  0
  1 26  1  0
  1 27  1  0
  1 28  1  0
  2  3  1  0
  2 29  1  0
  2 30  1  0
  3  4  2  0
  3 24  1  0
  4  5  1  0
  4 31  1  0
  5  6  1  0
  5  8  2  0
  6  7  1  0
  6 32  1  0
  6 33  1  0
  7 34  1  0
  7 35  1  0
  7 36  1  0
  8  9  1  0
  8 23  1  0
  9 10  1  0
 10 11  1  0
 10 37  1  0
 10 38  1  0
 11 12  1  0
 11 39  1  0
 11 40  1  0
 12 13  1  0
 12 41  1  0
 12 42  1  0
 13 14  1  0
 13 43  1  0
 13 44  1  0
 14 15  1  0
 14 45  1  0
 14 46  1  0
 15 16  1  0
 15 17  1  0
 15 18  1  0
 16 47  1  0
 16 48  1  0
 16 49  1  0
 17 50  1  0
 17 51  1  0
 17 52  1  0
 18 19  1  0
 18 22  2  0
 19 20  1  0
 20 21  2  0
 21 22  1  0
 23 24  2  0
 23 53  1  0
 24 25  1  0
 25 54  1  0
M  CHG  1  19  -1
M  END
> <Name>
ligand_150

> <activity>
1

$$$$
ligand_151
  SciTegic10272118463D

 68 71  0  0  1  0            999 V2000
   20.4069   -3.3577    1.6606 C   0  0
   13.6495   -7.0308    1.3819 C   0  0
   19.2817   -5.3135   -1.3233 C   0  0
   14.8740   -4.1783   -0.3735 C   0  0
   13.2261   -7.3476   -0.0691 C   0  0
   13.5209   -5.5634   -2.5818 O   0  0
   18.3296   -6.4694   -0.9609 C   0  0
   11.0277   -6.2926    0.4263 C   0  0
   18.0925   -2.9446    0.8098 C   0  0
   11.4620   -2.4826    0.1005 C   0  0
   11.3371   -4.4170   -2.0046 O   0  0
   17.0349   -3.7255    0.5126 N   0  0
   13.5053   -3.9300   -0.5109 C   0  0
   18.0422   -1.7450    1.0859 O   0  0
   21.0959   -4.9706    0.2648 N   0  0
   19.8697   -4.6281   -0.0845 C   0  0
   23.7833   -3.4675    1.1612 C   0  0
   12.5055   -6.9631    2.2343 O   0  0
   11.5479   -5.9788    1.8428 C   0  0
   12.5775   -5.0694   -1.5710 S   0  0
   12.9398   -2.8397    0.1830 C   0  0
   15.1081   -2.2954    1.1191 C   0  0
   21.4174   -4.2065    1.3124 N   0  0
   22.7466   -4.3027    1.8991 C   0  0
   18.6724   -4.3288   -2.3410 C   0  0
   13.7492   -2.0349    0.9900 C   0  0
   15.6781   -3.3694    0.4273 C   0  0
   12.1378   -6.4553   -0.5433 N   0  0
   19.3500   -3.6452    0.8088 C   0  0
   24.0907   -2.1777    1.5964 C   0  0
   25.0336   -1.4055    0.9240 C   0  0
   25.6763   -1.9239   -0.1962 C   0  0
   25.3826   -3.2101   -0.6509 C   0  0
   24.4311   -3.9813    0.0366 C   0  0
   26.0676   -3.6367   -1.7724 O   0  0
   25.8032   -4.9333   -2.2974 C   0  0
   20.5221   -2.6520    2.4705 H   0  0
   14.3199   -7.8043    1.7568 H   0  0
   14.1858   -6.0840    1.4422 H   0  0
   20.1042   -5.7852   -1.8666 H   0  0
   15.3173   -5.0141   -0.8959 H   0  0
   14.0698   -7.2852   -0.7564 H   0  0
   12.8552   -8.3709   -0.1348 H   0  0
   17.9909   -6.9923   -1.8561 H   0  0
   18.8305   -7.2041   -0.3293 H   0  0
   17.4421   -6.1349   -0.4286 H   0  0
   10.4647   -7.2264    0.4331 H   0  0
   10.3397   -5.5293    0.0654 H   0  0
   10.8344   -3.3450    0.3163 H   0  0
   11.1879   -1.7062    0.8159 H   0  0
   11.2167   -2.1066   -0.8930 H   0  0
   17.2456   -4.6782    0.2562 H   0  0
   12.0128   -4.9930    1.8840 H   0  0
   10.7258   -5.9806    2.5586 H   0  0
   15.6942   -1.6642    1.7692 H   0  0
   22.6865   -3.9985    2.9454 H   0  0
   23.0497   -5.3515    1.9104 H   0  0
   18.4221   -4.8389   -3.2719 H   0  0
   17.7581   -3.8592   -1.9843 H   0  0
   19.3769   -3.5339   -2.5890 H   0  0
   13.3266   -1.2002    1.5305 H   0  0
   23.5941   -1.7658    2.4631 H   0  0
   25.2643   -0.4083    1.2689 H   0  0
   26.4069   -1.3230   -0.7179 H   0  0
   24.1803   -4.9779   -0.2940 H   0  0
   26.4237   -5.0976   -3.1782 H   0  0
   26.0440   -5.7147   -1.5750 H   0  0
   24.7614   -5.0362   -2.6049 H   0  0
  1 23  1  0
  1 29  2  0
  1 37  1  0
  2  5  1  0
  2 18  1  0
  2 38  1  0
  2 39  1  0
  3 16  1  0
  3  7  1  0
  3 25  1  0
  3 40  1  0
  4 13  2  0
  4 27  1  0
  4 41  1  0
  5 28  1  0
  5 42  1  0
  5 43  1  0
  6 20  2  0
  7 44  1  0
  7 45  1  0
  7 46  1  0
  8 19  1  0
  8 28  1  0
  8 47  1  0
  8 48  1  0
  9 14  2  0
  9 12  1  0
  9 29  1  0
 10 21  1  0
 10 49  1  0
 10 50  1  0
 10 51  1  0
 11 20  2  0
 12 27  1  0
 12 52  1  0
 13 21  1  0
 13 20  1  0
 15 16  2  0
 15 23  1  0
 16 29  1  0
 17 24  1  0
 17 30  1  0
 17 34  2  0
 18 19  1  0
 19 53  1  0
 19 54  1  0
 20 28  1  0
 21 26  2  0
 22 26  1  0
 22 27  2  0
 22 55  1  0
 23 24  1  0
 24 56  1  0
 24 57  1  0
 25 58  1  0
 25 59  1  0
 25 60  1  0
 26 61  1  0
 30 31  2  0
 30 62  1  0
 31 32  1  0
 31 63  1  0
 32 33  2  0
 32 64  1  0
 33 34  1  0
 33 35  1  0
 34 65  1  0
 35 36  1  0
 36 66  1  0
 36 67  1  0
 36 68  1  0
M  END
> <Name>
ligand_151

> <activity>
1

$$$$
ligand_152
  SciTegic10272118463D

 65 66  0  0  1  0            999 V2000
   23.8933  -27.2765    2.0810 C   0  0
   24.7708  -27.6899    3.2909 C   0  0
   22.9103  -28.4532    1.8143 C   0  0
   16.5878  -18.3641    0.4723 C   0  0
   16.6217  -19.1265   -0.7029 C   0  0
   17.4313  -20.2602   -0.8120 C   0  0
   18.2396  -20.6525    0.2643 C   0  0
   18.2281  -19.8763    1.4335 C   0  0
   17.4239  -18.7413    1.5404 C   0  0
   17.4126  -21.0622   -2.1104 C   0  0
   16.4452  -22.2584   -2.0532 C   0  0
   15.7114  -17.1480    0.4956 C   0  0
   14.9746  -16.8279    1.7960 C   0  0
   17.5040  -18.0205    2.7057 O   0  0
   19.0101  -21.7914    0.1063 O   0  0
   19.8257  -22.2513    1.1795 C   0  0
   20.5390  -23.5365    0.7354 C   0  0
   21.4487  -24.1274    1.8273 C   0  0
   22.1656  -25.4131    1.3784 C   0  0
   23.0771  -26.0058    2.4777 C   0  0
   24.8105  -26.9821    0.8667 C   0  0
   24.7692  -27.6449   -0.2712 N   0  0
   25.7276  -27.0708   -1.0716 N   0  0
   26.3166  -26.0636   -0.3558 N   0  0
   25.7166  -26.0253    0.8799 N   0  5
   15.4117  -16.5060   -0.5115 O   0  0
   16.4264  -23.0762   -3.3567 C   0  0
   15.4612  -24.2737   -3.2992 C   0  0
   15.4428  -25.0922   -4.6021 C   0  0
   14.4802  -26.2861   -4.5443 C   0  0
   25.4610  -26.8967    3.5822 H   0  0
   24.1656  -27.9247    4.1677 H   0  0
   25.3715  -28.5722    3.0649 H   0  0
   22.2748  -28.2697    0.9477 H   0  0
   23.4450  -29.3849    1.6229 H   0  0
   22.2522  -28.6298    2.6661 H   0  0
   16.0044  -18.8484   -1.5469 H   0  0
   18.8514  -20.1430    2.2730 H   0  0
   17.1447  -20.4052   -2.9398 H   0  0
   18.4234  -21.4057   -2.3367 H   0  0
   16.7234  -22.9098   -1.2229 H   0  0
   15.4380  -21.8992   -1.8354 H   0  0
   14.0716  -16.2517    1.5938 H   0  0
   14.6800  -17.7462    2.3042 H   0  0
   15.6123  -16.2483    2.4629 H   0  0
   18.1247  -18.3945    3.3345 H   0  0
   19.2121  -22.4534    2.0595 H   0  0
   20.5623  -21.4908    1.4455 H   0  0
   21.1302  -23.3277   -0.1576 H   0  0
   19.7933  -24.2771    0.4421 H   0  0
   20.8559  -24.3366    2.7193 H   0  0
   22.1916  -23.3839    2.1208 H   0  0
   22.7554  -25.1974    0.4863 H   0  0
   21.4187  -26.1488    1.0797 H   0  0
   22.4658  -26.2278    3.3542 H   0  0
   23.7689  -25.2266    2.8035 H   0  0
   16.1478  -22.4262   -4.1878 H   0  0
   17.4343  -23.4342   -3.5730 H   0  0
   15.7400  -24.9235   -2.4680 H   0  0
   14.4532  -23.9161   -3.0825 H   0  0
   15.1620  -24.4474   -5.4362 H   0  0
   16.4482  -25.4548   -4.8213 H   0  0
   14.4930  -26.8422   -5.4821 H   0  0
   14.7541  -26.9774   -3.7465 H   0  0
   13.4547  -25.9599   -4.3675 H   0  0
  1  2  1  0
  1  3  1  0
  1 20  1  0
  1 21  1  0
  2 31  1  0
  2 32  1  0
  2 33  1  0
  3 34  1  0
  3 35  1  0
  3 36  1  0
  4  5  2  0
  4  9  1  0
  4 12  1  0
  5  6  1  0
  5 37  1  0
  6  7  2  0
  6 10  1  0
  7  8  1  0
  7 15  1  0
  8  9  2  0
  8 38  1  0
  9 14  1  0
 10 11  1  0
 10 39  1  0
 10 40  1  0
 11 27  1  0
 11 41  1  0
 11 42  1  0
 12 13  1  0
 12 26  2  0
 13 43  1  0
 13 44  1  0
 13 45  1  0
 14 46  1  0
 15 16  1  0
 16 17  1  0
 16 47  1  0
 16 48  1  0
 17 18  1  0
 17 49  1  0
 17 50  1  0
 18 19  1  0
 18 51  1  0
 18 52  1  0
 19 20  1  0
 19 53  1  0
 19 54  1  0
 20 55  1  0
 20 56  1  0
 21 22  2  0
 21 25  1  0
 22 23  1  0
 23 24  2  0
 24 25  1  0
 27 28  1  0
 27 57  1  0
 27 58  1  0
 28 29  1  0
 28 59  1  0
 28 60  1  0
 29 30  1  0
 29 61  1  0
 29 62  1  0
 30 63  1  0
 30 64  1  0
 30 65  1  0
M  CHG  1  25  -1
M  END
> <Name>
ligand_152

> <activity>
1

$$$$
ligand_153
  SciTegic10272118463D

 46 49  0  0  1  0            999 V2000
    1.3366    0.6832   -0.8760 C   0  0
    0.7564   -0.1702   -1.8100 C   0  0
   -0.4781   -0.7601   -1.5702 C   0  0
   -1.1832   -0.5269   -0.3919 C   0  0
   -0.6021    0.3358    0.5502 C   0  0
    0.6605    0.9625    0.3297 C   0  0
    0.9432    1.7688    1.4961 C   0  0
   -0.1277    1.5935    2.3783 C   0  0
   -1.0560    0.7461    1.7924 N   0  0
   -0.3942    2.1772    3.7601 C   0  0
   -2.3140    0.2962    2.3983 C   0  0
   -2.1226   -1.0573    3.1086 C   0  0
   -3.4151   -1.5727    3.7548 C   0  0
    2.1320    2.6108    1.7168 C   0  0
    2.5192    2.8626    2.8582 O   0  0
    2.9176    3.0873    0.5365 C   0  0
    4.2800    2.7685    0.5038 C   0  0
    5.0931    3.1709   -0.5469 C   0  0
    4.5744    3.9225   -1.5926 C   0  0
    2.3641    3.9009   -0.5146 C   0  0
    1.3449    5.4807   -2.6409 C   0  0
    0.5144    5.1105   -1.5957 C   0  0
    1.0076    4.3398   -0.5495 C   0  0
    3.2126    4.3049   -1.5929 C   0  0
    2.6770    5.0882   -2.6434 C   0  0
    2.3019    1.1137   -1.0919 H   0  0
    1.2753   -0.3803   -2.7339 H   0  0
   -0.8993   -1.4195   -2.3150 H   0  0
   -2.1387   -1.0012   -0.2226 H   0  0
    0.4086    2.8089    4.1335 H   0  0
   -1.2895    2.7989    3.7655 H   0  0
   -0.5401    1.3948    4.5051 H   0  0
   -2.6809    1.0538    3.0908 H   0  0
   -3.0680    0.2197    1.6135 H   0  0
   -1.7607   -1.8024    2.3982 H   0  0
   -1.3536   -0.9668    3.8774 H   0  0
   -3.2485   -2.5303    4.2489 H   0  0
   -3.7887   -0.8745    4.5048 H   0  0
   -4.1996   -1.7167    3.0110 H   0  0
    4.7245    2.1828    1.2971 H   0  0
    6.1378    2.8962   -0.5505 H   0  0
    5.2157    4.2294   -2.4065 H   0  0
    0.9566    6.0798   -3.4516 H   0  0
   -0.5197    5.4229   -1.5941 H   0  0
    0.3332    4.0743    0.2502 H   0  0
    3.3191    5.3888   -3.4590 H   0  0
  1  2  1  0
  1  6  2  0
  1 26  1  0
  2  3  2  0
  2 27  1  0
  3  4  1  0
  3 28  1  0
  4  5  2  0
  4 29  1  0
  5  6  1  0
  5  9  1  0
  6  7  1  0
  7  8  2  0
  7 14  1  0
  8  9  1  0
  8 10  1  0
  9 11  1  0
 10 30  1  0
 10 31  1  0
 10 32  1  0
 11 12  1  0
 11 33  1  0
 11 34  1  0
 12 13  1  0
 12 35  1  0
 12 36  1  0
 13 37  1  0
 13 38  1  0
 13 39  1  0
 14 15  2  0
 14 16  1  0
 16 17  1  0
 16 20  2  0
 17 18  2  0
 17 40  1  0
 18 19  1  0
 18 41  1  0
 19 24  2  0
 19 42  1  0
 20 23  1  0
 20 24  1  0
 21 22  1  0
 21 25  2  0
 21 43  1  0
 22 23  2  0
 22 44  1  0
 23 45  1  0
 24 25  1  0
 25 46  1  0
M  END
> <Name>
ligand_153

> <activity>
1

$$$$
ligand_154
  SciTegic10272118463D

 43 46  0  0  1  0            999 V2000
   -1.3778    3.5446   -1.4818 C   0  0
   -2.3812    3.2600   -0.5655 C   0  0
    0.0643    1.9592   -0.3970 C   0  0
   -0.1569    2.8905   -1.4051 C   0  0
   -0.9177    1.6674    0.5709 C   0  0
   -0.6407    0.5967    1.6946 C   0  0
   -0.8456    0.4528    4.2557 C   0  0
   -0.9680    2.5109    3.4323 C   0  0
   -1.0840    2.6077    4.8131 C   0  0
   -0.8665    1.1653    3.0629 N   0  0
   -1.0029    1.3232    5.3091 N   0  3
   -1.5998   -0.5935    1.3428 C   0  0
   -1.4676   -1.2240    0.0974 C   0  0
   -2.2952   -2.2725   -0.2801 C   0  0
   -3.2917   -2.7112    0.5768 C   0  0
   -3.4608   -2.0918    1.8050 C   0  0
   -2.6301   -1.0440    2.1811 C   0  0
   -2.1692    2.3261    0.4474 C   0  0
   -3.5108    2.0314    1.5038 Cl  0  0
    0.8589    0.1378    1.7645 C   0  0
    1.2517   -1.2065    1.6908 C   0  0
    2.5876   -1.5749    1.7869 C   0  0
    3.5660   -0.6112    1.9738 C   0  0
    3.2040    0.7226    2.0742 C   0  0
    1.8683    1.0884    1.9785 C   0  0
   -1.5534    4.2667   -2.2658 H   0  0
   -3.3338    3.7629   -0.6481 H   0  0
    1.0179    1.4563   -0.4088 H   0  0
    0.6156    3.0971   -2.1315 H   0  0
   -0.7189   -0.6171    4.3413 H   0  0
   -0.9468    3.2906    2.6857 H   0  0
   -1.1893    3.4558    5.4748 H   0  0
   -0.7001   -0.9005   -0.5909 H   0  0
   -2.1639   -2.7443   -1.2429 H   0  0
   -3.9399   -3.5245    0.2847 H   0  0
   -4.2487   -2.4186    2.4678 H   0  0
   -2.8373   -0.5776    3.1297 H   0  0
    0.5315   -2.0006    1.5731 H   0  0
    2.8643   -2.6171    1.7225 H   0  0
    4.6044   -0.8992    2.0495 H   0  0
    3.9610    1.4774    2.2294 H   0  0
    1.6145    2.1349    2.0654 H   0  0
   -1.0284    1.0669    6.2871 H   0  0
  1  2  2  0
  1  4  1  0
  1 26  1  0
  2 18  1  0
  2 27  1  0
  3  4  2  0
  3  5  1  0
  3 28  1  0
  4 29  1  0
  5  6  1  0
  5 18  2  0
  6 10  1  0
  6 12  1  0
  6 20  1  0
  7 10  1  0
  7 11  2  0
  7 30  1  0
  8  9  2  0
  8 10  1  0
  8 31  1  0
  9 11  1  0
  9 32  1  0
 11 43  1  0
 12 13  2  0
 12 17  1  0
 13 14  1  0
 13 33  1  0
 14 15  2  0
 14 34  1  0
 15 16  1  0
 15 35  1  0
 16 17  2  0
 16 36  1  0
 17 37  1  0
 18 19  1  0
 20 21  1  0
 20 25  2  0
 21 22  2  0
 21 38  1  0
 22 23  1  0
 22 39  1  0
 23 24  2  0
 23 40  1  0
 24 25  1  0
 24 41  1  0
 25 42  1  0
M  CHG  1  11   1
M  END
> <Name>
ligand_154

> <activity>
1

$$$$
ligand_155
  SciTegic10272118463D

 58 61  0  0  1  0            999 V2000
   11.6844  -10.5058    0.8595 S   0  0
   10.6136  -10.0187    1.7369 O   0  0
   12.5687  -11.5806    1.3263 O   0  0
   13.0007   -6.8157   -0.3801 C   0  0
   12.1529   -7.8838   -0.0704 C   0  0
   12.7047   -9.0791    0.4323 C   0  0
   14.0913   -9.1792    0.6033 C   0  0
   14.9372   -8.1099    0.2726 C   0  0
   14.3782   -6.9252   -0.2065 C   0  0
   16.3347   -8.1336    0.4255 N   0  0
   17.1598   -9.2022    0.4497 C   0  0
   18.5466   -8.8559    0.6383 C   0  0
   16.8140  -10.3786    0.3338 O   0  0
   19.4826   -9.5600    1.4237 C   0  0
   20.6719   -9.0131    1.3486 N   0  0
   20.5645   -7.9876    0.4925 N   0  0
   19.2801   -7.8443    0.0029 C   0  0
   19.3025  -10.7768    2.3091 C   0  0
   21.7169   -7.2275    0.1952 C   0  0
   22.4722   -6.6701    1.2280 C   0  0
   23.6064   -5.9221    0.9378 C   0  0
   23.9949   -5.7305   -0.3818 C   0  0
   23.2516   -6.2900   -1.4132 C   0  0
   22.1163   -7.0384   -1.1277 C   0  0
   18.8996   -6.7663   -1.0019 C   0  0
   10.6552   -7.7006   -0.2811 C   0  0
   10.9435  -11.0341   -0.6665 N   0  0
    9.7559  -11.9121   -0.5365 C   0  0
   10.1649  -13.3926   -0.4009 C   0  0
   11.0092  -13.7628   -1.4928 O   0  0
   12.2109  -12.9949   -1.5894 C   0  0
   11.8788  -11.4927   -1.7245 C   0  0
   12.5946   -5.8890   -0.7590 H   0  0
   14.5030  -10.0909    1.0067 H   0  0
   15.0075   -6.0825   -0.4557 H   0  0
   16.7751   -7.2278    0.4834 H   0  0
   19.7551  -10.6339    3.2908 H   0  0
   18.2545  -11.0185    2.4841 H   0  0
   19.7638  -11.6607    1.8685 H   0  0
   22.1796   -6.8120    2.2587 H   0  0
   24.1870   -5.4896    1.7395 H   0  0
   24.8777   -5.1497   -0.6059 H   0  0
   23.5590   -6.1464   -2.4387 H   0  0
   21.5597   -7.4802   -1.9410 H   0  0
   17.8257   -6.6815   -1.1570 H   0  0
   19.2467   -5.7818   -0.6869 H   0  0
   19.3293   -6.9608   -1.9838 H   0  0
   10.4263   -6.7466   -0.7578 H   0  0
   10.2475   -8.4818   -0.9210 H   0  0
   10.1281   -7.7192    0.6726 H   0  0
    9.1580  -11.5821    0.3132 H   0  0
    9.1393  -11.7681   -1.4244 H   0  0
   10.6952  -13.5664    0.5373 H   0  0
    9.2831  -14.0335   -0.4006 H   0  0
   12.8251  -13.1856   -0.7083 H   0  0
   12.7769  -13.3367   -2.4560 H   0  0
   11.4043  -11.2982   -2.6869 H   0  0
   12.7799  -10.8799   -1.6948 H   0  0
  1  2  2  0
  1  3  2  0
  1  6  1  0
  1 27  1  0
  4  5  2  0
  4  9  1  0
  4 33  1  0
  5  6  1  0
  5 26  1  0
  6  7  2  0
  7  8  1  0
  7 34  1  0
  8  9  2  0
  8 10  1  0
  9 35  1  0
 10 11  1  0
 10 36  1  0
 11 12  1  0
 11 13  2  0
 12 14  1  0
 12 17  2  0
 14 15  2  0
 14 18  1  0
 15 16  1  0
 16 17  1  0
 16 19  1  0
 17 25  1  0
 18 37  1  0
 18 38  1  0
 18 39  1  0
 19 20  2  0
 19 24  1  0
 20 21  1  0
 20 40  1  0
 21 22  2  0
 21 41  1  0
 22 23  1  0
 22 42  1  0
 23 24  2  0
 23 43  1  0
 24 44  1  0
 25 45  1  0
 25 46  1  0
 25 47  1  0
 26 48  1  0
 26 49  1  0
 26 50  1  0
 27 28  1  0
 27 32  1  0
 28 29  1  0
 28 51  1  0
 28 52  1  0
 29 30  1  0
 29 53  1  0
 29 54  1  0
 30 31  1  0
 31 32  1  0
 31 55  1  0
 31 56  1  0
 32 57  1  0
 32 58  1  0
M  END
> <Name>
ligand_155

> <activity>
1

$$$$
ligand_156
  SciTegic10272118463D

 66 68  0  0  1  0            999 V2000
   26.7580  -16.5147    6.5327 C   0  0
   26.7576  -16.6357    8.0788 C   0  0
   25.6432  -17.4644    6.0060 C   0  0
   25.1525   -7.4182   -0.5396 C   0  0
   25.4270   -8.5480   -1.3229 C   0  0
   25.6292   -9.8023   -0.7460 C   0  0
   25.5734   -9.9502    0.6450 C   0  0
   25.3059   -8.8204    1.4325 C   0  0
   25.0991   -7.5522    0.8633 C   0  0
   25.9242  -10.9953   -1.6509 C   0  0
   27.4285  -11.2567   -1.8111 C   0  0
   24.9819   -6.0872   -1.2161 C   0  0
   25.1697   -4.9997   -0.6706 O   0  0
   24.3961   -6.0873   -2.6296 C   0  0
   24.8223   -6.4266    1.6260 O   0  0
   25.7933  -11.2144    1.1643 O   0  0
   25.7832  -11.4165    2.5743 C   0  0
   26.0789  -12.8960    2.8592 C   0  0
   26.0900  -13.2284    4.3620 C   0  0
   26.3896  -14.7112    4.6452 C   0  0
   26.3988  -15.0426    6.1554 C   0  0
   28.1620  -16.8916    5.9951 C   0  0
   28.3973  -17.8991    5.1793 N   0  0
   29.7514  -17.8804    4.9453 N   0  0
   30.2801  -16.8347    5.6528 N   0  0
   29.2475  -16.2175    6.3172 N   0  5
   24.8598   -6.4587    3.0553 C   0  0
   26.3127   -6.5730    3.5741 C   0  0
   26.5197   -5.3892    4.5240 C   0  0
   25.5759   -4.3144    3.9898 C   0  0
   24.3361   -5.1028    3.5632 C   0  0
   27.0118  -17.6471    8.3996 H   0  0
   27.4805  -15.9608    8.5394 H   0  0
   25.7814  -16.3961    8.5027 H   0  0
   25.8098  -18.4934    6.3284 H   0  0
   24.6577  -17.1697    6.3692 H   0  0
   25.5953  -17.4781    4.9170 H   0  0
   25.4974   -8.4667   -2.3985 H   0  0
   25.2597   -8.9332    2.5017 H   0  0
   25.4320  -11.8853   -1.2560 H   0  0
   25.4726  -10.8334   -2.6310 H   0  0
   27.6073  -12.1111   -2.4643 H   0  0
   27.9364  -10.3952   -2.2459 H   0  0
   27.8973  -11.4721   -0.8501 H   0  0
   24.0493   -5.0907   -2.9040 H   0  0
   25.1461   -6.4041   -3.3539 H   0  0
   23.5467   -6.7679   -2.6887 H   0  0
   26.5395  -10.7896    3.0507 H   0  0
   24.8088  -11.1469    2.9861 H   0  0
   25.3344  -13.5138    2.3547 H   0  0
   27.0428  -13.1593    2.4208 H   0  0
   26.8338  -12.6077    4.8643 H   0  0
   25.1255  -12.9645    4.7989 H   0  0
   25.6475  -15.3257    4.1353 H   0  0
   27.3539  -14.9687    4.2048 H   0  0
   27.1015  -14.3679    6.6481 H   0  0
   25.4223  -14.7904    6.5729 H   0  0
   24.2099   -7.2573    3.4175 H   0  0
   26.5018   -7.5252    4.0709 H   0  0
   27.0197   -6.4945    2.7463 H   0  0
   26.2255   -5.6686    5.5373 H   0  0
   27.5578   -5.0568    4.5634 H   0  0
   25.3525   -3.5431    4.7278 H   0  0
   26.0223   -3.8239    3.1227 H   0  0
   23.7461   -4.5644    2.8198 H   0  0
   23.6913   -5.2623    4.4290 H   0  0
  1  2  1  0
  1  3  1  0
  1 21  1  0
  1 22  1  0
  2 32  1  0
  2 33  1  0
  2 34  1  0
  3 35  1  0
  3 36  1  0
  3 37  1  0
  4  5  2  0
  4  9  1  0
  4 12  1  0
  5  6  1  0
  5 38  1  0
  6  7  2  0
  6 10  1  0
  7  8  1  0
  7 16  1  0
  8  9  2  0
  8 39  1  0
  9 15  1  0
 10 11  1  0
 10 40  1  0
 10 41  1  0
 11 42  1  0
 11 43  1  0
 11 44  1  0
 12 13  2  0
 12 14  1  0
 14 45  1  0
 14 46  1  0
 14 47  1  0
 15 27  1  0
 16 17  1  0
 17 18  1  0
 17 48  1  0
 17 49  1  0
 18 19  1  0
 18 50  1  0
 18 51  1  0
 19 20  1  0
 19 52  1  0
 19 53  1  0
 20 21  1  0
 20 54  1  0
 20 55  1  0
 21 56  1  0
 21 57  1  0
 22 23  2  0
 22 26  1  0
 23 24  1  0
 24 25  2  0
 25 26  1  0
 27 28  1  0
 27 31  1  0
 27 58  1  0
 28 29  1  0
 28 59  1  0
 28 60  1  0
 29 30  1  0
 29 61  1  0
 29 62  1  0
 30 31  1  0
 30 63  1  0
 30 64  1  0
 31 65  1  0
 31 66  1  0
M  CHG  1  26  -1
M  END
> <Name>
ligand_156

> <activity>
1

$$$$
ligand_157
  SciTegic10272118463D

 32 35  0  0  1  0            999 V2000
   12.6909    0.0396    1.2831 C   0  0
   11.3791    0.6641    1.3113 C   0  0
   13.0702   -1.1050    1.9578 C   0  0
   10.1078    0.1214    1.1697 C   0  0
   11.2618    2.0159    1.5199 N   0  0
   14.3829   -1.3963    1.7093 N   0  0
   13.8634    0.4755    0.5670 C   0  0
   14.9141   -0.4510    0.8591 C   0  0
    9.1734    1.2202    1.2936 C   0  0
    9.9406    2.3996    1.5143 C   0  0
    9.8499   -1.2145    0.9520 N   0  0
   16.1995   -0.3201    0.3230 C   0  0
   14.1419    1.5507   -0.2940 C   0  0
   12.3784   -1.9468    2.7845 O   0  0
   16.4278    0.7645   -0.5243 C   0  0
   15.4228    1.6798   -0.8276 C   0  0
    8.6856   -1.5421    0.8598 O   0  0
   18.1566    0.9972   -1.2859 Br  0  0
    7.7737    1.3463    1.2446 C   0  0
    9.3523    3.6564    1.6813 C   0  0
    7.1844    2.5969    1.4100 C   0  0
    7.9621    3.7280    1.6242 C   0  0
   12.0685    2.6067    1.6581 H   0  0
   14.8405   -2.1985    2.1160 H   0  0
   16.9872   -1.0237    0.5490 H   0  0
   13.3767    2.2699   -0.5461 H   0  0
   11.4340   -1.8605    2.6304 H   0  0
   15.6391    2.5054   -1.4901 H   0  0
    7.1463    0.4831    1.0796 H   0  0
    9.9437    4.5446    1.8487 H   0  0
    6.1088    2.6898    1.3716 H   0  0
    7.4768    4.6850    1.7493 H   0  0
  1  2  1  0
  1  3  2  0
  1  7  1  0
  2  4  2  0
  2  5  1  0
  3  6  1  0
  3 14  1  0
  4  9  1  0
  4 11  1  0
  5 10  1  0
  5 23  1  0
  6  8  1  0
  6 24  1  0
  7  8  2  0
  7 13  1  0
  8 12  1  0
  9 10  2  0
  9 19  1  0
 10 20  1  0
 11 17  2  0
 12 15  2  0
 12 25  1  0
 13 16  2  0
 13 26  1  0
 14 27  1  0
 15 16  1  0
 15 18  1  0
 16 28  1  0
 19 21  2  0
 19 29  1  0
 20 22  2  0
 20 30  1  0
 21 22  1  0
 21 31  1  0
 22 32  1  0
M  END
> <Name>
ligand_157

> <activity>
1

$$$$
ligand_158
  SciTegic10272118463D

 65 68  0  0  1  0            999 V2000
   20.7648   -1.7454    0.6424 C   0  0
   15.0168   -6.6044    1.8458 C   0  0
   18.6272   -7.2410   -0.0234 C   0  0
   19.4763   -5.0152   -0.4460 C   0  0
   15.3336   -3.9708   -0.4562 C   0  0
   14.4776   -7.2745    0.5628 C   0  0
   14.2098   -6.0456   -2.2412 O   0  0
   19.3504   -6.1244    0.3892 C   0  0
   18.1707   -6.1411   -2.1401 C   0  0
   12.2099   -6.4390    1.1745 C   0  0
   18.3108   -1.9986    0.1192 C   0  0
   11.6868   -2.7880   -0.3275 C   0  0
   11.8587   -5.2832   -1.6834 O   0  0
   17.3697   -2.9593    0.2110 N   0  0
   13.9467   -3.9943   -0.6064 C   0  0
   18.0938   -0.8041   -0.0909 O   0  0
   21.4752   -3.8496    0.2956 N   0  0
   20.1857   -3.7927    0.0326 C   0  0
   23.6749   -3.1040    2.2255 C   0  0
   18.0393   -7.2381   -1.2967 C   0  0
   13.9862   -6.4891    2.8278 O   0  0
   12.8487   -5.7437    2.3919 C   0  0
   13.2430   -5.5279   -1.2647 S   0  0
   13.2042   -2.8549   -0.2293 C   0  0
   15.2489   -1.7167    0.4091 C   0  0
   21.8298   -2.6062    0.6541 N   0  0
   23.2227   -2.2941    0.9932 C   0  0
   18.8885   -5.0323   -1.7105 C   0  0
   13.8658   -1.7262    0.2672 C   0  0
   15.9842   -2.8481    0.0477 C   0  0
   13.2012   -6.6724    0.0975 N   0  0
   19.6551   -2.4992    0.2892 C   0  0
   18.5339   -8.2839    0.8775 O   0  0
   17.8187   -9.4584    0.5094 C   0  0
   24.1404   -2.5211   -0.2254 C   0  0
   20.8846   -0.7020    0.8957 H   0  0
   15.8329   -7.1952    2.2626 H   0  0
   15.4152   -5.6117    1.6415 H   0  0
   15.9121   -4.8427   -0.7277 H   0  0
   15.2088   -7.2425   -0.2443 H   0  0
   14.2819   -8.3304    0.7515 H   0  0
   19.7984   -6.1133    1.3726 H   0  0
   17.7099   -6.1469   -3.1171 H   0  0
   11.8076   -7.4106    1.4630 H   0  0
   11.3716   -5.8684    0.7768 H   0  0
   11.2254   -3.6281    0.1901 H   0  0
   11.2863   -1.8794    0.1240 H   0  0
   11.3709   -2.7954   -1.3709 H   0  0
   17.7111   -3.9027    0.3221 H   0  0
   24.6848   -2.8250    2.5278 H   0  0
   23.0193   -2.9272    3.0792 H   0  0
   23.6778   -4.1767    2.0265 H   0  0
   17.4692   -8.0835   -1.6505 H   0  0
   13.1571   -4.7259    2.1467 H   0  0
   12.1327   -5.6784    3.2113 H   0  0
   15.7305   -0.8415    0.8193 H   0  0
   23.2622   -1.2346    1.2530 H   0  0
   18.9759   -4.1733   -2.3605 H   0  0
   13.3076   -0.8483    0.5591 H   0  0
   17.8527  -10.1723    1.3322 H   0  0
   16.7692   -9.2422    0.3056 H   0  0
   18.2622   -9.9402   -0.3633 H   0  0
   25.1658   -2.2236   -0.0038 H   0  0
   24.1619   -3.5695   -0.5265 H   0  0
   23.8106   -1.9362   -1.0851 H   0  0
  1 26  1  0
  1 32  2  0
  1 36  1  0
  2  6  1  0
  2 21  1  0
  2 37  1  0
  2 38  1  0
  3  8  2  0
  3 20  1  0
  3 33  1  0
  4 18  1  0
  4  8  1  0
  4 28  2  0
  5 15  2  0
  5 30  1  0
  5 39  1  0
  6 31  1  0
  6 40  1  0
  6 41  1  0
  7 23  2  0
  8 42  1  0
  9 28  1  0
  9 20  2  0
  9 43  1  0
 10 22  1  0
 10 31  1  0
 10 44  1  0
 10 45  1  0
 11 16  2  0
 11 14  1  0
 11 32  1  0
 12 24  1  0
 12 46  1  0
 12 47  1  0
 12 48  1  0
 13 23  2  0
 14 30  1  0
 14 49  1  0
 15 24  1  0
 15 23  1  0
 17 18  2  0
 17 26  1  0
 18 32  1  0
 19 27  1  0
 19 50  1  0
 19 51  1  0
 19 52  1  0
 20 53  1  0
 21 22  1  0
 22 54  1  0
 22 55  1  0
 23 31  1  0
 24 29  2  0
 25 29  1  0
 25 30  2  0
 25 56  1  0
 26 27  1  0
 27 35  1  0
 27 57  1  0
 28 58  1  0
 29 59  1  0
 33 34  1  0
 34 60  1  0
 34 61  1  0
 34 62  1  0
 35 63  1  0
 35 64  1  0
 35 65  1  0
M  END
> <Name>
ligand_158

> <activity>
1

$$$$
ligand_159
  SciTegic10272118463D

 67 69  0  0  1  0            999 V2000
    6.5116  -34.4370    4.3243 C   0  0
    6.7859  -34.8003    5.8068 C   0  0
    5.2428  -35.2287    3.8937 C   0  0
    4.2656  -24.2948   -0.8898 C   0  0
    4.2759  -25.2897   -1.8691 C   0  0
    4.5331  -26.6210   -1.5366 C   0  0
    4.7787  -26.9755   -0.2020 C   0  0
    4.7645  -25.9699    0.7793 C   0  0
    4.5083  -24.6282    0.4505 C   0  0
    4.5319  -27.6734   -2.6415 C   0  0
    3.1774  -28.3827   -2.7796 C   0  0
    3.9774  -22.8537   -1.3002 C   0  0
    2.5016  -22.4718   -1.1184 C   0  0
    4.4754  -23.6028    1.3794 O   0  0
    5.0180  -28.3113    0.0711 O   0  0
    5.2537  -28.7321    1.4114 C   0  0
    5.4727  -30.2519    1.4160 C   0  0
    5.7333  -30.8176    2.8236 C   0  0
    5.9548  -32.3406    2.8255 C   0  0
    6.2144  -32.9063    4.2409 C   0  0
    7.7556  -34.8014    3.4747 C   0  0
    7.7510  -35.6799    2.4928 N   0  0
    9.0355  -35.6994    2.0044 N   0  0
    9.7715  -34.8083    2.7378 N   0  0
    8.9347  -34.2470    3.6723 N   0  5
    4.6696  -23.8885    2.7609 C   0  0
    4.5422  -22.5960    3.5488 C   0  0
    5.6748  -21.8483    3.8626 C   0  0
    5.5547  -20.6646    4.5804 C   0  0
    4.3025  -20.2216    4.9868 C   0  0
    3.1697  -20.9620    4.6740 C   0  0
    3.2886  -22.1458    3.9565 C   0  0
    7.6356  -34.2475    6.2101 H   0  0
    5.9283  -34.5770    6.4431 H   0  0
    7.0086  -35.8621    5.9225 H   0  0
    4.9942  -35.0678    2.8445 H   0  0
    5.3784  -36.3032    4.0255 H   0  0
    4.3694  -34.9408    4.4806 H   0  0
    4.0801  -25.0259   -2.8988 H   0  0
    4.9524  -26.2339    1.8066 H   0  0
    4.8022  -27.2085   -3.5910 H   0  0
    5.3177  -28.4057   -2.4503 H   0  0
    3.2067  -29.1247   -3.5777 H   0  0
    2.9054  -28.8992   -1.8583 H   0  0
    2.3817  -27.6748   -3.0142 H   0  0
    4.6103  -22.1767   -0.7245 H   0  0
    4.2712  -22.7021   -2.3401 H   0  0
    2.3267  -21.4398   -1.4232 H   0  0
    1.8508  -23.1093   -1.7179 H   0  0
    2.1940  -22.5647   -0.0761 H   0  0
    4.3988  -28.4793    2.0414 H   0  0
    6.1347  -28.2291    1.8147 H   0  0
    6.3137  -30.4945    0.7645 H   0  0
    4.5990  -30.7409    0.9826 H   0  0
    4.8916  -30.5737    3.4739 H   0  0
    6.6064  -30.3254    3.2553 H   0  0
    6.7964  -32.5776    2.1731 H   0  0
    5.0826  -32.8254    2.3867 H   0  0
    5.3565  -32.6697    4.8728 H   0  0
    7.0503  -32.3575    4.6791 H   0  0
    3.9247  -24.6032    3.1168 H   0  0
    5.6549  -24.3279    2.9293 H   0  0
    6.6531  -22.1823    3.5483 H   0  0
    6.4357  -20.0881    4.8216 H   0  0
    4.2097  -19.3011    5.5442 H   0  0
    2.1955  -20.6167    4.9878 H   0  0
    2.4014  -22.7131    3.7146 H   0  0
  1  2  1  0
  1  3  1  0
  1 20  1  0
  1 21  1  0
  2 33  1  0
  2 34  1  0
  2 35  1  0
  3 36  1  0
  3 37  1  0
  3 38  1  0
  4  5  2  0
  4  9  1  0
  4 12  1  0
  5  6  1  0
  5 39  1  0
  6  7  2  0
  6 10  1  0
  7  8  1  0
  7 15  1  0
  8  9  2  0
  8 40  1  0
  9 14  1  0
 10 11  1  0
 10 41  1  0
 10 42  1  0
 11 43  1  0
 11 44  1  0
 11 45  1  0
 12 13  1  0
 12 46  1  0
 12 47  1  0
 13 48  1  0
 13 49  1  0
 13 50  1  0
 14 26  1  0
 15 16  1  0
 16 17  1  0
 16 51  1  0
 16 52  1  0
 17 18  1  0
 17 53  1  0
 17 54  1  0
 18 19  1  0
 18 55  1  0
 18 56  1  0
 19 20  1  0
 19 57  1  0
 19 58  1  0
 20 59  1  0
 20 60  1  0
 21 22  2  0
 21 25  1  0
 22 23  1  0
 23 24  2  0
 24 25  1  0
 26 27  1  0
 26 61  1  0
 26 62  1  0
 27 28  2  0
 27 32  1  0
 28 29  1  0
 28 63  1  0
 29 30  2  0
 29 64  1  0
 30 31  1  0
 30 65  1  0
 31 32  2  0
 31 66  1  0
 32 67  1  0
M  CHG  1  25  -1
M  END
> <Name>
ligand_159

> <activity>
1

$$$$
ligand_160
  SciTegic10272118463D

 53 55  0  0  1  0            999 V2000
   -0.3639    0.3210   -0.0278 C   0  0
   -0.1972    1.6890   -0.2282 C   0  0
   -1.3060    2.5227   -0.3138 C   0  0
   -2.5959    2.0015   -0.2103 C   0  0
   -2.8052    0.6151   -0.0230 C   0  0
   -1.6622   -0.2054    0.0592 C   0  0
   -3.6286    2.8981   -0.3046 O   0  0
    0.8069   -0.4552    0.0347 N   0  0
    0.9859   -1.6538    0.6287 C   0  0
    0.1395   -2.2838    1.2630 O   0  0
    2.3751   -2.2074    0.4719 C   0  0
    2.6909   -3.0443   -0.6153 C   0  0
    3.9813   -3.5572   -0.7496 C   0  0
    4.9756   -3.2562    0.1803 C   0  0
    4.6609   -2.4263    1.2624 C   0  0
    3.3763   -1.9033    1.4141 C   0  0
    6.2508   -3.8104   -0.0191 N   0  0
    1.5234   -3.4751   -1.8240 Cl  0  0
   -4.2378    0.0030    0.0861 C   0  0
   -4.9906    0.5988    1.3038 C   0  0
   -5.0411    0.2667   -1.2135 C   0  0
   -4.2362   -1.5389    0.2904 C   0  0
    3.0800   -0.8824    2.7850 Cl  0  0
    7.3962   -3.4082    0.7876 C   0  0
    8.6124   -4.2262    0.3942 C   0  0
    9.5129   -3.7587   -0.5698 C   0  0
   10.6257   -4.5326   -0.9058 C   0  0
   10.8050   -5.7577   -0.2607 C   0  0
    9.9457   -6.2296    0.6786 N   0  0
    8.8689   -5.4644    0.9934 C   0  0
    0.7916    2.1175   -0.3115 H   0  0
   -1.1558    3.5822   -0.4620 H   0  0
   -1.7713   -1.2698    0.1755 H   0  0
   -3.3277    3.8004   -0.4306 H   0  0
    1.6246   -0.0317   -0.3777 H   0  0
    4.2068   -4.1987   -1.5896 H   0  0
    5.4086   -2.1759    1.9997 H   0  0
    6.4440   -4.2313   -0.9166 H   0  0
   -5.9655    0.1286    1.4416 H   0  0
   -4.4287    0.4520    2.2273 H   0  0
   -5.1809    1.6662    1.2075 H   0  0
   -6.0185   -0.2173   -1.1856 H   0  0
   -5.2319    1.3239   -1.3899 H   0  0
   -4.5159   -0.1180   -2.0888 H   0  0
   -5.2494   -1.9366    0.3686 H   0  0
   -3.7625   -2.0600   -0.5430 H   0  0
   -3.7177   -1.8279    1.2061 H   0  0
    7.5976   -2.3456    0.6414 H   0  0
    7.1846   -3.5538    1.8481 H   0  0
    9.3529   -2.8069   -1.0555 H   0  0
   11.3321   -4.1907   -1.6478 H   0  0
   11.6537   -6.3839   -0.4939 H   0  0
    8.2019   -5.8658    1.7427 H   0  0
  1  2  2  0
  1  6  1  0
  1  8  1  0
  2  3  1  0
  2 31  1  0
  3  4  2  0
  3 32  1  0
  4  5  1  0
  4  7  1  0
  5  6  2  0
  5 19  1  0
  6 33  1  0
  7 34  1  0
  8  9  1  0
  8 35  1  0
  9 10  2  0
  9 11  1  0
 11 12  2  0
 11 16  1  0
 12 13  1  0
 12 18  1  0
 13 14  2  0
 13 36  1  0
 14 15  1  0
 14 17  1  0
 15 16  2  0
 15 37  1  0
 16 23  1  0
 17 24  1  0
 17 38  1  0
 19 20  1  0
 19 21  1  0
 19 22  1  0
 20 39  1  0
 20 40  1  0
 20 41  1  0
 21 42  1  0
 21 43  1  0
 21 44  1  0
 22 45  1  0
 22 46  1  0
 22 47  1  0
 24 25  1  0
 24 48  1  0
 24 49  1  0
 25 26  2  0
 25 30  1  0
 26 27  1  0
 26 50  1  0
 27 28  2  0
 27 51  1  0
 28 29  1  0
 28 52  1  0
 29 30  2  0
 30 53  1  0
M  END
> <Name>
ligand_160

> <activity>
1

$$$$
ligand_161
  SciTegic10272118463D

 55 59  0  0  1  0            999 V2000
   14.5170  -11.7557   -3.9488 C   0  0
   14.3364  -13.1379   -3.9947 C   0  0
   14.4934  -13.9423   -2.8634 C   0  0
   14.8670  -11.1122   -2.7618 C   0  0
   15.0336  -11.8942   -1.6100 C   0  0
   14.8438  -13.2959   -1.6698 C   0  0
   15.0766  -13.7400   -0.3759 N   0  0
   15.4165  -12.6016    0.3583 C   0  0
   15.3751  -11.4994   -0.3499 N   0  0
   14.9809  -15.1631    0.0489 C   0  0  1  0  0  0
   16.2792  -15.9777   -0.2029 C   0  0
   17.4374  -15.3079   -0.3469 N   0  0
   16.2177  -17.2047   -0.2943 O   0  0
   18.7242  -15.9315   -0.6329 C   0  0
   19.9440  -15.4043    0.0866 C   0  0
   19.3934  -16.7647    0.4392 C   0  0
   15.7837  -12.5527    1.8028 C   0  0
   14.9267  -11.9083    2.7004 C   0  0
   15.2403  -11.8643    4.0560 C   0  0
   16.4172  -12.4548    4.5120 C   0  0
   17.2856  -13.0825    3.6211 C   0  0
   16.9712  -13.1271    2.2656 C   0  0
   14.2905  -15.3661    1.4503 C   0  0
   12.9006  -14.6661    1.5130 C   0  0
   12.2158  -14.8077    2.8855 C   0  0
   12.0757  -16.2819    3.2990 C   0  0
   13.4325  -17.0042    3.2586 C   0  0
   14.1327  -16.8509    1.8926 C   0  0
   16.8049  -12.4038    6.1927 Cl  0  0
   14.3842  -11.1739   -4.8493 H   0  0
   14.0667  -13.5996   -4.9333 H   0  0
   14.3499  -15.0113   -2.9201 H   0  0
   15.0069  -10.0416   -2.7342 H   0  0
   14.2748  -15.6154   -0.6498 H   0  0
   17.3910  -14.3054   -0.4554 H   0  0
   18.8448  -16.2421   -1.6721 H   0  0
   20.8864  -15.3474   -0.4586 H   0  0
   19.8297  -14.5941    0.8074 H   0  0
   18.8899  -16.8946    1.3980 H   0  0
   19.9497  -17.6518    0.1360 H   0  0
   14.0121  -11.4522    2.3494 H   0  0
   14.5721  -11.3745    4.7490 H   0  0
   18.2008  -13.5319    3.9776 H   0  0
   17.6553  -13.6048    1.5835 H   0  0
   14.9227  -14.9194    2.2138 H   0  0
   12.9839  -13.6052    1.2806 H   0  0
   12.2493  -15.0849    0.7440 H   0  0
   12.7964  -14.2706    3.6375 H   0  0
   11.2339  -14.3334    2.8628 H   0  0
   11.6441  -16.3513    4.2982 H   0  0
   11.3763  -16.7835    2.6283 H   0  0
   14.0782  -16.6020    4.0411 H   0  0
   13.2977  -18.0614    3.4910 H   0  0
   13.5746  -17.4024    1.1342 H   0  0
   15.1059  -17.3350    1.9709 H   0  0
  1  2  2  0
  1  4  1  0
  1 30  1  0
  2  3  1  0
  2 31  1  0
  3  6  2  0
  3 32  1  0
  4  5  2  0
  4 33  1  0
  5  6  1  0
  5  9  1  0
  6  7  1  0
  7  8  1  0
  7 10  1  0
  8  9  2  0
  8 17  1  0
 10 11  1  0
 10 23  1  0
 10 34  1  0
 11 12  1  0
 11 13  2  0
 12 14  1  0
 12 35  1  0
 14 15  1  0
 14 16  1  0
 14 36  1  0
 15 16  1  0
 15 37  1  0
 15 38  1  0
 16 39  1  0
 16 40  1  0
 17 18  2  0
 17 22  1  0
 18 19  1  0
 18 41  1  0
 19 20  2  0
 19 42  1  0
 20 21  1  0
 20 29  1  0
 21 22  2  0
 21 43  1  0
 22 44  1  0
 23 24  1  0
 23 28  1  0
 23 45  1  0
 24 25  1  0
 24 46  1  0
 24 47  1  0
 25 26  1  0
 25 48  1  0
 25 49  1  0
 26 27  1  0
 26 50  1  0
 26 51  1  0
 27 28  1  0
 27 52  1  0
 27 53  1  0
 28 54  1  0
 28 55  1  0
M  END
> <Name>
ligand_161

> <activity>
1

$$$$
ligand_162
  SciTegic10272118463D

 62 66  0  0  1  0            999 V2000
   25.2971  -13.6902   -4.5957 C   0  0
   24.9416  -14.9458   -4.1037 C   0  0
   24.9900  -15.2475   -2.7406 C   0  0
   25.7188  -12.6723   -3.7405 C   0  0
   25.7766  -12.9443   -2.3663 C   0  0
   25.4147  -14.2252   -1.8801 C   0  0
   25.5907  -14.1397   -0.5066 N   0  0
   26.0217  -12.8388   -0.2602 C   0  0
   26.1500  -12.1178   -1.3463 N   0  0
   25.3398  -15.2335    0.4579 C   0  0  1  0  0  0
   26.6094  -15.5927    1.2694 C   0  0
   26.6347  -15.2854    2.5805 N   0  0
   27.5591  -16.1233    0.6920 O   0  0
   27.7318  -15.5555    3.5103 C   0  0
   27.5624  -14.8093    4.8482 C   0  0
   28.7078  -15.1249    5.8291 C   0  0
   28.8257  -16.5333    6.0209 O   0  0
   29.1042  -17.2624    4.8268 C   0  0
   27.9819  -17.0550    3.7913 C   0  0
   26.3379  -12.2710    1.0772 C   0  0
   25.3137  -11.8283    1.9170 C   0  0
   25.6224  -11.2924    3.1643 C   0  0
   26.9545  -11.1898    3.5619 C   0  0
   27.9808  -11.6171    2.7209 C   0  0
   27.6722  -12.1565    1.4753 C   0  0
   24.0118  -15.0246    1.2746 C   0  0
   22.8272  -14.4944    0.4153 C   0  0
   21.5335  -14.3026    1.2313 C   0  0
   21.1269  -15.5867    1.9744 C   0  0
   22.2794  -16.1238    2.8404 C   0  0
   23.5693  -16.3180    2.0195 C   0  0
   27.3370  -10.5360    5.1122 Cl  0  0
   25.2441  -13.5032   -5.6584 H   0  0
   24.6194  -15.7080   -4.7982 H   0  0
   24.7094  -16.2266   -2.3820 H   0  0
   25.9914  -11.7021   -4.1289 H   0  0
   25.1695  -16.1258   -0.1457 H   0  0
   25.8208  -14.8408    2.9783 H   0  0
   28.6258  -15.1484    3.0300 H   0  0
   27.5111  -13.7343    4.6811 H   0  0
   26.6131  -15.0901    5.3072 H   0  0
   29.6532  -14.7173    5.4661 H   0  0
   28.5161  -14.6541    6.7938 H   0  0
   30.0690  -16.9542    4.4196 H   0  0
   29.1951  -18.3202    5.0750 H   0  0
   27.0640  -17.5147    4.1606 H   0  0
   28.2356  -17.5819    2.8709 H   0  0
   24.2816  -11.8989    1.6050 H   0  0
   24.8312  -10.9559    3.8182 H   0  0
   29.0115  -11.5351    3.0332 H   0  0
   28.4669  -12.4906    0.8235 H   0  0
   24.1982  -14.2710    2.0393 H   0  0
   23.0813  -13.5391   -0.0450 H   0  0
   22.6364  -15.1851   -0.4077 H   0  0
   21.6780  -13.4968    1.9528 H   0  0
   20.7239  -13.9808    0.5751 H   0  0
   20.2492  -15.3986    2.5940 H   0  0
   20.8316  -16.3475    1.2500 H   0  0
   22.4727  -15.4298    3.6600 H   0  0
   21.9871  -17.0671    3.3035 H   0  0
   23.4121  -17.1184    1.2945 H   0  0
   24.3525  -16.6747    2.6881 H   0  0
  1  2  2  0
  1  4  1  0
  1 33  1  0
  2  3  1  0
  2 34  1  0
  3  6  2  0
  3 35  1  0
  4  5  2  0
  4 36  1  0
  5  6  1  0
  5  9  1  0
  6  7  1  0
  7  8  1  0
  7 10  1  0
  8  9  2  0
  8 20  1  0
 10 11  1  0
 10 26  1  0
 10 37  1  0
 11 12  1  0
 11 13  2  0
 12 14  1  0
 12 38  1  0
 14 15  1  0
 14 19  1  0
 14 39  1  0
 15 16  1  0
 15 40  1  0
 15 41  1  0
 16 17  1  0
 16 42  1  0
 16 43  1  0
 17 18  1  0
 18 19  1  0
 18 44  1  0
 18 45  1  0
 19 46  1  0
 19 47  1  0
 20 21  2  0
 20 25  1  0
 21 22  1  0
 21 48  1  0
 22 23  2  0
 22 49  1  0
 23 24  1  0
 23 32  1  0
 24 25  2  0
 24 50  1  0
 25 51  1  0
 26 27  1  0
 26 31  1  0
 26 52  1  0
 27 28  1  0
 27 53  1  0
 27 54  1  0
 28 29  1  0
 28 55  1  0
 28 56  1  0
 29 30  1  0
 29 57  1  0
 29 58  1  0
 30 31  1  0
 30 59  1  0
 30 60  1  0
 31 61  1  0
 31 62  1  0
M  END
> <Name>
ligand_162

> <activity>
1

$$$$
ligand_163
  SciTegic10272118463D

 52 55  0  0  1  0            999 V2000
    9.5643    0.2959    0.9967 C   0  0
   10.5025    1.3175    1.6694 C   0  0
   11.9740    1.0759    1.2975 C   0  0
   12.2312    1.2634   -0.2141 C   0  0
    9.9468    0.1395   -0.4688 C   0  0
   11.1577    0.5476   -1.0468 C   0  0
   11.2360    0.2688   -2.4396 C   0  0
   10.0782   -0.4062   -2.8826 C   0  0
    8.9117   -0.6347   -1.6057 S   0  0
   12.3940    0.6078   -3.2860 C   0  0
   12.1757    1.2721   -4.6173 C   0  0
   13.5221    0.2765   -2.9165 O   0  0
   13.1839    1.2371   -5.5855 C   0  0
   13.0104    1.8565   -6.8168 C   0  0
   11.8320    2.5333   -7.0958 C   0  0
   10.8306    2.5978   -6.1381 C   0  0
   11.0034    1.9800   -4.9061 C   0  0
    9.8730   -0.8778   -4.1822 N   0  0
    8.7763   -1.4510   -4.7242 C   0  0
    8.9229   -1.8197   -6.2096 C   0  0
    7.7229   -1.6788   -4.1257 O   0  0
    7.6394   -2.0750   -6.7829 O   0  0
    7.4972   -2.4112   -8.0922 C   0  0
    6.0685   -2.6365   -8.4930 C   0  0
    8.4470   -2.5134   -8.8739 O   0  0
    5.7742   -2.9502   -9.8280 C   0  0
    4.4586   -3.1659  -10.2296 C   0  0
    3.4267   -3.0704   -9.3005 C   0  0
    3.7005   -2.7608   -7.9709 C   0  0
    5.0156   -2.5447   -7.5673 C   0  0
    2.1342   -3.2831   -9.6987 O   0  0
    9.6375   -0.6665    1.5046 H   0  0
    8.5280    0.6179    1.1055 H   0  0
   10.2158    2.3295    1.3781 H   0  0
   10.3772    1.2696    2.7519 H   0  0
   12.6167    1.7525    1.8621 H   0  0
   12.2634    0.0673    1.5978 H   0  0
   12.2357    2.3268   -0.4561 H   0  0
   13.2333    0.9006   -0.4418 H   0  0
   14.1140    0.7186   -5.3975 H   0  0
   13.7952    1.8124   -7.5577 H   0  0
   11.6979    3.0153   -8.0531 H   0  0
    9.9170    3.1341   -6.3487 H   0  0
   10.2087    2.0649   -4.1786 H   0  0
   10.6543   -0.7360   -4.8060 H   0  0
    9.4276   -1.0132   -6.7475 H   0  0
    9.5470   -2.7124   -6.2871 H   0  0
    6.5587   -3.0301  -10.5678 H   0  0
    4.2422   -3.4067  -11.2602 H   0  0
    2.9008   -2.6869   -7.2486 H   0  0
    5.1977   -2.3071   -6.5285 H   0  0
    1.5033   -3.1934   -8.9813 H   0  0
  1  2  1  0
  1  5  1  0
  1 32  1  0
  1 33  1  0
  2  3  1  0
  2 34  1  0
  2 35  1  0
  3  4  1  0
  3 36  1  0
  3 37  1  0
  4  6  1  0
  4 38  1  0
  4 39  1  0
  5  6  2  0
  5  9  1  0
  6  7  1  0
  7  8  2  0
  7 10  1  0
  8  9  1  0
  8 18  1  0
 10 11  1  0
 10 12  2  0
 11 13  1  0
 11 17  2  0
 13 14  2  0
 13 40  1  0
 14 15  1  0
 14 41  1  0
 15 16  2  0
 15 42  1  0
 16 17  1  0
 16 43  1  0
 17 44  1  0
 18 19  1  0
 18 45  1  0
 19 20  1  0
 19 21  2  0
 20 22  1  0
 20 46  1  0
 20 47  1  0
 22 23  1  0
 23 24  1  0
 23 25  2  0
 24 26  2  0
 24 30  1  0
 26 27  1  0
 26 48  1  0
 27 28  2  0
 27 49  1  0
 28 29  1  0
 28 31  1  0
 29 30  2  0
 29 50  1  0
 30 51  1  0
 31 52  1  0
M  END
> <Name>
ligand_163

> <activity>
1

$$$$
ligand_164
  SciTegic10272118463D

 62 66  0  0  1  0            999 V2000
    7.4040   -6.1790    0.3481 C   0  0
    6.6825   -7.5519    0.2968 C   0  0
    6.8487   -8.2423   -1.0709 C   0  0
    8.2293   -8.3717   -1.4015 O   0  0
    8.9198   -7.1279   -1.4919 C   0  0
    8.8611   -6.3765   -0.1478 C   0  0
    8.2029   -0.5473    0.0539 C   0  0
    7.1262   -1.3612   -0.2971 C   0  0
    6.9756   -2.6513    0.2167 C   0  0
    9.1848   -0.9908    0.9396 C   0  0
    9.0608   -2.2817    1.4726 C   0  0
    7.9592   -3.0967    1.1108 C   0  0
    8.1586   -4.2788    1.8123 N   0  0
    9.3347   -4.1019    2.5323 C   0  0
    9.8908   -2.9310    2.3407 N   0  0
    7.3211   -5.4962    1.7580 C   0  0  1  0  0  0
    5.8894   -5.2202    2.2762 C   0  0
    5.7527   -5.0956    3.6091 N   0  0
    4.9463   -5.0997    1.4926 O   0  0
    4.5030   -4.8288    4.3232 C   0  0
    9.9539   -5.1228    3.4247 C   0  0
   11.2182   -5.6316    3.1151 C   0  0
   11.8059   -6.5861    3.9412 C   0  0
   11.1312   -7.0248    5.0792 C   0  0
    9.8748   -6.5133    5.3992 C   0  0
    9.2870   -5.5590    4.5731 C   0  0
    3.5397   -6.0420    4.3772 C   0  0
    2.2340   -5.7306    5.1361 C   0  0
    2.5082   -5.1720    6.5446 C   0  0
    3.4467   -3.9521    6.4970 C   0  0
    4.7538   -4.2630    5.7402 C   0  0
   11.8593   -8.2080    6.1030 Cl  0  0
    6.9090   -5.5275   -0.3748 H   0  0
    7.0828   -8.2058    1.0730 H   0  0
    5.6186   -7.4454    0.5084 H   0  0
    6.4007   -9.2360   -1.0463 H   0  0
    6.3282   -7.6853   -1.8523 H   0  0
    9.9566   -7.3227   -1.7675 H   0  0
    8.4930   -6.5220   -2.2934 H   0  0
    9.3667   -5.4172   -0.2618 H   0  0
    9.4298   -6.9352    0.5974 H   0  0
    8.2779    0.4437   -0.3695 H   0  0
    6.3867   -0.9825   -0.9875 H   0  0
    6.1344   -3.2648   -0.0689 H   0  0
   10.0175   -0.3559    1.2041 H   0  0
    7.7502   -6.2138    2.4567 H   0  0
    6.5716   -5.2114    4.1859 H   0  0
    4.0037   -4.0361    3.7592 H   0  0
   11.7422   -5.2920    2.2331 H   0  0
   12.7811   -6.9827    3.6992 H   0  0
    9.3588   -6.8517    6.2858 H   0  0
    8.3191   -5.1559    4.8304 H   0  0
    3.2967   -6.3752    3.3673 H   0  0
    4.0434   -6.8830    4.8565 H   0  0
    1.6493   -5.0062    4.5668 H   0  0
    1.6197   -6.6293    5.2048 H   0  0
    1.5688   -4.9019    7.0286 H   0  0
    2.9565   -5.9511    7.1632 H   0  0
    2.9352   -3.1205    6.0096 H   0  0
    3.6733   -3.6169    7.5100 H   0  0
    5.3418   -4.9780    6.3185 H   0  0
    5.3594   -3.3575    5.6777 H   0  0
  1  2  1  0
  1  6  1  0
  1 16  1  0
  1 33  1  0
  2  3  1  0
  2 34  1  0
  2 35  1  0
  3  4  1  0
  3 36  1  0
  3 37  1  0
  4  5  1  0
  5  6  1  0
  5 38  1  0
  5 39  1  0
  6 40  1  0
  6 41  1  0
  7  8  2  0
  7 10  1  0
  7 42  1  0
  8  9  1  0
  8 43  1  0
  9 12  2  0
  9 44  1  0
 10 11  2  0
 10 45  1  0
 11 12  1  0
 11 15  1  0
 12 13  1  0
 13 14  1  0
 13 16  1  0
 14 15  2  0
 14 21  1  0
 16 17  1  0
 16 46  1  0
 17 18  1  0
 17 19  2  0
 18 20  1  0
 18 47  1  0
 20 27  1  0
 20 31  1  0
 20 48  1  0
 21 22  2  0
 21 26  1  0
 22 23  1  0
 22 49  1  0
 23 24  2  0
 23 50  1  0
 24 25  1  0
 24 32  1  0
 25 26  2  0
 25 51  1  0
 26 52  1  0
 27 28  1  0
 27 53  1  0
 27 54  1  0
 28 29  1  0
 28 55  1  0
 28 56  1  0
 29 30  1  0
 29 57  1  0
 29 58  1  0
 30 31  1  0
 30 59  1  0
 30 60  1  0
 31 61  1  0
 31 62  1  0
M  END
> <Name>
ligand_164

> <activity>
1

$$$$
ligand_165
  SciTegic10272118463D

 76 80  0  0  1  0            999 V2000
   20.3567   -2.2623    1.2334 C   0  0
   14.0360   -6.8589    0.9051 C   0  0
   18.4433   -7.8892    0.5107 C   0  0
   19.0432   -5.5589    0.2332 C   0  0
   15.0045   -3.6345   -0.1292 C   0  0
   13.7764   -6.9576   -0.6142 C   0  0
   14.1820   -4.7567   -2.7288 O   0  0
   19.1456   -6.7623    0.9319 C   0  0
   17.5458   -6.6130   -1.3490 C   0  0
   11.4567   -6.1590   -0.1933 C   0  0
   17.9184   -2.5258    0.6417 C   0  0
   11.4277   -2.2448   -0.1038 C   0  0
   11.8067   -3.9596   -2.3507 O   0  0
   16.8890   -3.1458    1.2938 N   0  0
   13.6679   -3.4590   -0.4910 C   0  0
   17.7667   -1.5961   -0.1552 O   0  0
   21.0370   -4.3992    1.0328 N   0  0
   19.7597   -4.3358    0.7112 C   0  0
   17.6417   -7.8020   -0.6365 C   0  0
   12.8163   -7.0027    1.6342 O   0  0
   11.8208   -6.0349    1.2991 C   0  0
   13.0522   -4.5244   -1.8201 S   0  0
   12.8952   -2.5045    0.2060 C   0  0
   14.8045   -1.9472    1.5935 C   0  0
   21.3949   -3.1468    1.3447 N   0  0
   22.7787   -2.8573    1.6937 C   0  0
   18.2462   -5.4974   -0.9106 C   0  0
   13.4754   -1.7539    1.2352 C   0  0
   15.5652   -2.8930    0.9100 C   0  0
   12.6590   -6.0847   -1.0572 N   0  0
   19.2539   -3.0209    0.8764 C   0  0
   17.0497   -4.1318    2.3721 C   0  0
   23.6683   -2.6529    0.4757 C   0  0
   23.9146   -1.3685   -0.0113 C   0  0
   24.7229   -1.1736   -1.1277 C   0  0
   25.2908   -2.2712   -1.7673 C   0  0
   25.0557   -3.5648   -1.2995 C   0  0
   24.2404   -3.7497   -0.1710 C   0  0
   25.6582   -4.5910   -2.0017 O   0  0
   25.4444   -5.9362   -1.5874 C   0  0
   18.5899   -9.0301    1.2756 O   0  0
   17.8743  -10.2060    0.9123 C   0  0
   20.4899   -1.2087    1.4313 H   0  0
   14.7277   -7.6406    1.2201 H   0  0
   14.4901   -5.9056    1.1718 H   0  0
   15.6088   -4.3699   -0.6399 H   0  0
   14.6695   -6.7200   -1.1905 H   0  0
   13.5086   -7.9808   -0.8793 H   0  0
   19.7599   -6.8208    1.8190 H   0  0
   16.9282   -6.5540   -2.2334 H   0  0
   10.9779   -7.1198   -0.3849 H   0  0
   10.7418   -5.3976   -0.5021 H   0  0
   10.8519   -3.1684   -0.0737 H   0  0
   10.9710   -1.5638    0.6156 H   0  0
   11.3205   -1.7909   -1.0892 H   0  0
   17.0831   -8.6534   -0.9939 H   0  0
   12.1973   -5.0376    1.5313 H   0  0
   10.9407   -6.2028    1.9200 H   0  0
   15.2355   -1.3727    2.4008 H   0  0
   22.7976   -1.9724    2.3321 H   0  0
   23.1643   -3.6748    2.3061 H   0  0
   18.1625   -4.5745   -1.4664 H   0  0
   12.8932   -1.0199    1.7735 H   0  0
   18.0458   -4.1280    2.8148 H   0  0
   16.3454   -3.9265    3.1791 H   0  0
   16.8441   -5.1355    1.9992 H   0  0
   23.4751   -0.5106    0.4768 H   0  0
   24.9073   -0.1754   -1.4967 H   0  0
   25.9168   -2.1185   -2.6344 H   0  0
   24.0376   -4.7387    0.2114 H   0  0
   25.9855   -6.6076   -2.2540 H   0  0
   25.8154   -6.1075   -0.5758 H   0  0
   24.3883   -6.2068   -1.6341 H   0  0
   18.0995  -10.9986    1.6257 H   0  0
   16.7959  -10.0409    0.9331 H   0  0
   18.1647  -10.5617   -0.0774 H   0  0
  1 25  1  0
  1 31  2  0
  1 43  1  0
  2  6  1  0
  2 20  1  0
  2 44  1  0
  2 45  1  0
  3  8  2  0
  3 19  1  0
  3 41  1  0
  4 18  1  0
  4  8  1  0
  4 27  2  0
  5 15  2  0
  5 29  1  0
  5 46  1  0
  6 30  1  0
  6 47  1  0
  6 48  1  0
  7 22  2  0
  8 49  1  0
  9 27  1  0
  9 19  2  0
  9 50  1  0
 10 21  1  0
 10 30  1  0
 10 51  1  0
 10 52  1  0
 11 16  2  0
 11 14  1  0
 11 31  1  0
 12 23  1  0
 12 53  1  0
 12 54  1  0
 12 55  1  0
 13 22  2  0
 14 29  1  0
 14 32  1  0
 15 23  1  0
 15 22  1  0
 17 18  2  0
 17 25  1  0
 18 31  1  0
 19 56  1  0
 20 21  1  0
 21 57  1  0
 21 58  1  0
 22 30  1  0
 23 28  2  0
 24 28  1  0
 24 29  2  0
 24 59  1  0
 25 26  1  0
 26 33  1  0
 26 60  1  0
 26 61  1  0
 27 62  1  0
 28 63  1  0
 32 64  1  0
 32 65  1  0
 32 66  1  0
 33 34  1  0
 33 38  2  0
 34 35  2  0
 34 67  1  0
 35 36  1  0
 35 68  1  0
 36 37  2  0
 36 69  1  0
 37 38  1  0
 37 39  1  0
 38 70  1  0
 39 40  1  0
 40 71  1  0
 40 72  1  0
 40 73  1  0
 41 42  1  0
 42 74  1  0
 42 75  1  0
 42 76  1  0
M  END
> <Name>
ligand_165

> <activity>
1

$$$$
ligand_166
  SciTegic10272118463D

 72 77  0  0  1  0            999 V2000
    5.6029   -9.0300    1.7582 O   0  5
    5.2525   -8.2085    2.6358 C   0  0
    5.4409   -8.3674    3.8629 O   0  0
    4.5510   -6.8958    2.2039 C   0  0  1  0  0  0
    4.4777   -6.7433    0.6602 C   0  0
    3.7078   -5.4735    0.2477 C   0  0
    2.2987   -5.3938    0.8863 C   0  0  1  0  0  0
    2.3867   -5.5457    2.4214 C   0  0
    3.1474   -6.8141    2.8574 C   0  0
    1.5460   -4.2013    0.4947 N   0  0
    0.9727   -3.9854   -0.7050 C   0  0
    0.9671   -4.8321   -1.5997 O   0  0
    0.2827   -2.6123   -0.9107 C   0  0  2  0  0  0
   -0.2025   -2.3142   -2.3727 C   0  0
   -1.2501   -1.1708   -2.4342 C   0  0
   -1.8035   -0.9556   -3.8570 C   0  0
   -0.6763   -0.7281   -4.8819 C   0  0
    0.3723   -1.8554   -4.8345 C   0  0
    0.9252   -2.0637   -3.4105 C   0  0
    1.0086   -1.4613   -0.3162 N   0  0
    0.4758   -0.4692    0.5017 C   0  0
    1.3419    0.4590    0.8251 N   0  0
    2.5137    0.0708    0.2450 C   0  0
    3.7649    0.7000    0.2931 C   0  0
    4.8297    0.1045   -0.3822 C   0  0
    6.0462    0.6947   -0.3472 F   0  0
    4.6603   -1.0871   -1.0898 C   0  0
    5.7189   -1.6343   -1.7294 F   0  0
    3.4240   -1.7336   -1.1569 C   0  0
    2.3512   -1.1353   -0.4797 C   0  0
   -0.9361   -0.4060    0.9779 C   0  0
   -1.5067   -1.4364    1.7338 C   0  0
   -2.8309   -1.3341    2.1628 C   0  0
   -3.5621   -0.1849    1.8308 C   0  0
   -3.0149    0.8337    1.1073 N   0  0
   -1.7256    0.7149    0.7019 C   0  0
   -4.9126   -0.0522    2.2424 N   0  0
   -5.8243   -1.0600    2.4698 C   0  0
   -6.9993   -0.4429    2.8522 C   0  0
   -6.7067    0.9211    2.8257 C   0  0
   -5.4672    1.1588    2.4621 N   0  0
    5.1883   -6.1108    2.6147 H   0  0
    5.4811   -6.7068    0.2326 H   0  0
    3.9779   -7.6076    0.2179 H   0  0
    4.2852   -4.5924    0.5329 H   0  0
    3.6305   -5.4397   -0.8399 H   0  0
    1.7194   -6.2467    0.5226 H   0  0
    2.8806   -4.6692    2.8447 H   0  0
    1.3841   -5.5615    2.8517 H   0  0
    2.5543   -7.6895    2.5842 H   0  0
    3.2272   -6.8170    3.9461 H   0  0
    1.5109   -3.4608    1.1794 H   0  0
   -0.6291   -2.7425   -0.3327 H   0  0
   -0.7352   -3.2065   -2.7099 H   0  0
   -2.0772   -1.3801   -1.7543 H   0  0
   -0.8007   -0.2386   -2.0894 H   0  0
   -2.3911   -1.8263   -4.1523 H   0  0
   -2.4906   -0.1087   -3.8652 H   0  0
   -1.0949   -0.6492   -5.8859 H   0  0
   -0.1900    0.2273   -4.6787 H   0  0
   -0.0771   -2.7848   -5.1880 H   0  0
    1.1891   -1.6325   -5.5221 H   0  0
    1.4974   -1.1789   -3.1318 H   0  0
    1.6280   -2.8971   -3.4195 H   0  0
    3.9056    1.6207    0.8397 H   0  0
    3.3176   -2.6560   -1.7078 H   0  0
   -0.9278   -2.3118    1.9911 H   0  0
   -3.2661   -2.1310    2.7477 H   0  0
   -1.3286    1.5437    0.1334 H   0  0
   -5.5652   -2.1000    2.3372 H   0  0
   -7.9373   -0.9113    3.1117 H   0  0
   -7.3898    1.7225    3.0668 H   0  0
  1  2  1  0
  2  3  2  0
  2  4  1  0
  4  5  1  0
  4  9  1  0
  4 42  1  0
  5  6  1  0
  5 43  1  0
  5 44  1  0
  6  7  1  0
  6 45  1  0
  6 46  1  0
  7  8  1  0
  7 10  1  0
  7 47  1  0
  8  9  1  0
  8 48  1  0
  8 49  1  0
  9 50  1  0
  9 51  1  0
 10 11  1  0
 10 52  1  0
 11 12  2  0
 11 13  1  0
 13 14  1  0
 13 20  1  0
 13 53  1  0
 14 15  1  0
 14 19  1  0
 14 54  1  0
 15 16  1  0
 15 55  1  0
 15 56  1  0
 16 17  1  0
 16 57  1  0
 16 58  1  0
 17 18  1  0
 17 59  1  0
 17 60  1  0
 18 19  1  0
 18 61  1  0
 18 62  1  0
 19 63  1  0
 19 64  1  0
 20 21  1  0
 20 30  1  0
 21 22  2  0
 21 31  1  0
 22 23  1  0
 23 24  2  0
 23 30  1  0
 24 25  1  0
 24 65  1  0
 25 26  1  0
 25 27  2  0
 27 28  1  0
 27 29  1  0
 29 30  2  0
 29 66  1  0
 31 32  2  0
 31 36  1  0
 32 33  1  0
 32 67  1  0
 33 34  2  0
 33 68  1  0
 34 35  1  0
 34 37  1  0
 35 36  2  0
 36 69  1  0
 37 38  1  0
 37 41  1  0
 38 39  2  0
 38 70  1  0
 39 40  1  0
 39 71  1  0
 40 41  2  0
 40 72  1  0
M  CHG  1   1  -1
M  END
> <Name>
ligand_166

> <activity>
1

$$$$
ligand_167
  SciTegic10272118463D

 73 77  0  0  1  0            999 V2000
    7.3745   -3.0678    1.4374 N   0  0
    8.2758   -2.1154    1.7814 C   0  0
    6.3656   -2.6316    0.4576 C   0  0  1  0  0  0
    6.7774   -1.1988    0.2187 C   0  0
    7.8978   -0.9197    0.9714 C   0  0
    6.2476   -3.5674   -0.7959 C   0  0  2  0  0  0
    1.3480   -2.4921   -8.5779 C   0  0
    7.5814   -3.9287   -1.4708 C   0  0
    3.0558   -2.3599   -9.2334 S   0  0  2  0  0  0
    1.0809   -2.9645   -7.2810 C   0  0
    3.6129   -3.7386   -3.7339 N   0  3  2  0  0  0
    8.4016   -2.9344   -2.0148 C   0  0
    9.6068   -3.2674   -2.6280 C   0  0
    5.1900   -3.1002   -1.8262 C   0  0
    9.1965   -2.2077    2.5935 O   0  0
    2.2137   -3.3976   -6.3300 C   0  0  1  0  0  0
    9.9907   -4.6103   -2.7093 C   0  0
    3.0070   -1.3679  -10.3972 O   0  0
    7.9684   -5.2687   -1.5713 C   0  0
    4.8057   -4.1870   -2.8523 C   0  0
    9.1706   -5.6074   -2.1844 C   0  0
    7.3161   -4.3804    2.0997 C   0  0
    2.8039   -2.1963   -5.5644 C   0  0
    1.8477   -4.5317   -5.3439 C   0  0
    3.0581   -4.9652   -4.4998 C   0  0
    4.0125   -2.5905   -4.6959 C   0  0
   10.5934   -2.0023   -3.2742 Cl  0  0
   11.4789   -5.0714   -3.4607 Cl  0  0
    6.2085   -0.1928   -0.5588 C   0  0
    8.5009    0.3322    0.9374 C   0  0
    3.0864   -4.0530   -9.9892 C   0  0
    0.3067   -2.0840   -9.4076 C   0  0
   -0.2507   -3.0007   -6.8544 C   0  0
    8.5926   -5.2366    1.9973 C   0  0
    6.8017    1.0644   -0.6044 C   0  0
    7.9494    1.3249    0.1364 C   0  0
   -1.0063   -2.1405   -8.9672 C   0  0
   -1.2839   -2.5976   -7.6892 C   0  0
    5.4032   -2.6181    0.9715 H   0  0
    5.8480   -4.4983   -0.3902 H   0  0
    8.1090   -1.8966   -1.9674 H   0  0
    5.5763   -2.2289   -2.3513 H   0  0
    4.2901   -2.7741   -1.3027 H   0  0
    2.9946   -3.8185   -6.9632 H   0  0
    7.3444   -6.0526   -1.1672 H   0  0
    4.4653   -5.0852   -2.3341 H   0  0
    5.6213   -4.4518   -3.5281 H   0  0
    9.4658   -6.6446   -2.2503 H   0  0
    7.0657   -4.2256    3.1502 H   0  0
    6.4835   -4.9481    1.6850 H   0  0
    3.1165   -1.4222   -6.2668 H   0  0
    2.0368   -1.7409   -4.9359 H   0  0
    1.0562   -4.2193   -4.6626 H   0  0
    1.4646   -5.3937   -5.8922 H   0  0
    3.8702   -5.3584   -5.1146 H   0  0
    2.7718   -5.7107   -3.7560 H   0  0
    4.3394   -1.7441   -4.0932 H   0  0
    4.8479   -2.9524   -5.2983 H   0  0
    5.3084   -0.3638   -1.1289 H   0  0
    9.3809    0.5476    1.5263 H   0  0
    4.0471   -4.2252  -10.4739 H   0  0
    2.9404   -4.8202   -9.2291 H   0  0
    2.3016   -4.1492  -10.7395 H   0  0
    0.5130   -1.7192  -10.4034 H   0  0
   -0.5102   -3.3344   -5.8622 H   0  0
    8.4205   -6.2299    2.4117 H   0  0
    8.9152   -5.3616    0.9655 H   0  0
    9.4219   -4.7980    2.5516 H   0  0
    6.3662    1.8432   -1.2131 H   0  0
    8.4048    2.3037    0.1002 H   0  0
   -1.8095   -1.8235   -9.6163 H   0  0
   -2.3056   -2.6351   -7.3402 H   0  0
    2.8817   -3.4024   -3.1222 H   0  0
  1  2  1  0
  1  3  1  0
  1 22  1  0
  2  5  1  0
  2 15  2  0
  3  4  1  0
  3  6  1  0
  3 39  1  0
  4  5  2  0
  4 29  1  0
  5 30  1  0
  6  8  1  0
  6 14  1  0
  6 40  1  0
  7  9  1  0
  7 10  1  0
  7 32  2  0
  8 12  2  0
  8 19  1  0
  9 18  2  0
  9 31  1  0
 10 16  1  0
 10 33  2  0
 11 20  1  0
 11 25  1  0
 11 26  1  0
 11 73  1  0
 12 13  1  0
 12 41  1  0
 13 17  2  0
 13 27  1  0
 14 20  1  0
 14 42  1  0
 14 43  1  0
 16 23  1  0
 16 24  1  0
 16 44  1  0
 17 21  1  0
 17 28  1  0
 19 21  2  0
 19 45  1  0
 20 46  1  0
 20 47  1  0
 21 48  1  0
 22 34  1  0
 22 49  1  0
 22 50  1  0
 23 26  1  0
 23 51  1  0
 23 52  1  0
 24 25  1  0
 24 53  1  0
 24 54  1  0
 25 55  1  0
 25 56  1  0
 26 57  1  0
 26 58  1  0
 29 35  2  0
 29 59  1  0
 30 36  2  0
 30 60  1  0
 31 61  1  0
 31 62  1  0
 31 63  1  0
 32 37  1  0
 32 64  1  0
 33 38  1  0
 33 65  1  0
 34 66  1  0
 34 67  1  0
 34 68  1  0
 35 36  1  0
 35 69  1  0
 36 70  1  0
 37 38  2  0
 37 71  1  0
 38 72  1  0
M  CHG  1  11   1
M  END
> <Name>
ligand_167

> <activity>
1

$$$$
ligand_168
  SciTegic10272118463D

 73 77  0  0  1  0            999 V2000
    7.1630   -2.9881    1.3709 N   0  0
    8.2809   -2.2766    1.6569 C   0  0
    6.2256   -2.3154    0.4562 C   0  0  1  0  0  0
    6.9455   -1.0154    0.1895 C   0  0
    8.1439   -1.0151    0.8703 C   0  0
    5.8142   -3.1812   -0.7856 C   0  0  2  0  0  0
    2.4878   -3.9375   -7.8771 C   0  0
    6.9813   -3.8369   -1.5425 C   0  0
    1.5757   -5.3544   -7.1507 S   0  0  2  0  0  0
    2.4322   -2.5949   -7.4202 C   0  0
    3.0421   -2.6891   -3.5557 N   0  3  2  0  0  0
    7.9794   -3.0563   -2.1357 C   0  0
    9.0322   -3.6552   -2.8229 C   0  0
    4.8349   -2.4656   -1.7486 C   0  0
    9.2023   -2.5916    2.4101 O   0  0
    1.6777   -2.0397   -6.1669 C   0  0  2  0  0  0
    9.0814   -5.0494   -2.9291 C   0  0
    2.2874   -6.6338   -7.5951 O   0  0
    7.0330   -5.2286   -1.6680 C   0  0
    4.1414   -3.4191   -2.7441 C   0  0
    8.0815   -5.8324   -2.3552 C   0  0
    6.8412   -4.2602    2.0365 C   0  0
    2.5046   -1.0068   -5.3445 C   0  0
    1.0840   -3.0140   -5.1177 C   0  0
    2.1635   -3.7369   -4.2815 C   0  0
    3.6460   -1.6620   -4.5462 C   0  0
   10.2497   -2.6494   -3.5282 Cl  0  0
   10.3700   -5.8375   -3.7720 Cl  0  0
    6.5812    0.1055   -0.5530 C   0  0
    9.0195    0.0619    0.7968 C   0  0
    0.0764   -5.1715   -8.2261 C   0  0
    3.2473   -4.2664   -9.0010 C   0  0
    3.0851   -1.6392   -8.2135 C   0  0
    7.8737   -5.3887    1.8530 C   0  0
    7.4477    1.1901   -0.6376 C   0  0
    8.6675    1.1662    0.0300 C   0  0
    3.9216   -3.2985   -9.7223 C   0  0
    3.8252   -1.9772   -9.3352 C   0  0
    5.3268   -2.0842    1.0300 H   0  0
    5.2327   -3.9973   -0.3537 H   0  0
    7.9445   -1.9797   -2.0694 H   0  0
    5.3821   -1.7040   -2.3006 H   0  0
    4.0718   -1.9425   -1.1704 H   0  0
    0.8367   -1.5025   -6.6095 H   0  0
    6.2665   -5.8491   -1.2269 H   0  0
    3.6256   -4.2149   -2.2038 H   0  0
    4.8286   -3.8646   -3.4663 H   0  0
    8.1178   -6.9088   -2.4404 H   0  0
    6.7000   -4.0664    3.1008 H   0  0
    5.8748   -4.6123    1.6764 H   0  0
    2.9026   -0.1963   -5.9507 H   0  0
    1.8431   -0.4965   -4.6420 H   0  0
    0.4680   -2.4385   -4.4242 H   0  0
    0.3607   -3.6993   -5.5505 H   0  0
    2.8440   -4.3345   -4.8887 H   0  0
    1.7142   -4.3676   -3.5128 H   0  0
    4.1815   -0.9144   -3.9623 H   0  0
    4.3479   -2.1971   -5.1887 H   0  0
    5.6330    0.1565   -1.0657 H   0  0
    9.9597    0.0584    1.3294 H   0  0
   -0.6547   -5.9404   -7.9779 H   0  0
   -0.3846   -4.1948   -8.0794 H   0  0
    0.3445   -5.2790   -9.2773 H   0  0
    3.3023   -5.2883   -9.3469 H   0  0
    3.0269   -0.5883   -7.9807 H   0  0
    7.5009   -6.3204    2.2785 H   0  0
    8.0926   -5.5708    0.8026 H   0  0
    8.8156   -5.1631    2.3522 H   0  0
    7.1700    2.0568   -1.2194 H   0  0
    9.3359    2.0121   -0.0361 H   0  0
    4.4960   -3.5707  -10.5957 H   0  0
    4.3221   -1.2082   -9.9085 H   0  0
    2.4501   -2.1922   -2.9043 H   0  0
  1  2  1  0
  1  3  1  0
  1 22  1  0
  2  5  1  0
  2 15  2  0
  3  4  1  0
  3  6  1  0
  3 39  1  0
  4  5  2  0
  4 29  1  0
  5 30  1  0
  6  8  1  0
  6 14  1  0
  6 40  1  0
  7  9  1  0
  7 10  1  0
  7 32  2  0
  8 12  2  0
  8 19  1  0
  9 18  2  0
  9 31  1  0
 10 16  1  0
 10 33  2  0
 11 20  1  0
 11 25  1  0
 11 26  1  0
 11 73  1  0
 12 13  1  0
 12 41  1  0
 13 17  2  0
 13 27  1  0
 14 20  1  0
 14 42  1  0
 14 43  1  0
 16 23  1  0
 16 24  1  0
 16 44  1  0
 17 21  1  0
 17 28  1  0
 19 21  2  0
 19 45  1  0
 20 46  1  0
 20 47  1  0
 21 48  1  0
 22 34  1  0
 22 49  1  0
 22 50  1  0
 23 26  1  0
 23 51  1  0
 23 52  1  0
 24 25  1  0
 24 53  1  0
 24 54  1  0
 25 55  1  0
 25 56  1  0
 26 57  1  0
 26 58  1  0
 29 35  2  0
 29 59  1  0
 30 36  2  0
 30 60  1  0
 31 61  1  0
 31 62  1  0
 31 63  1  0
 32 37  1  0
 32 64  1  0
 33 38  1  0
 33 65  1  0
 34 66  1  0
 34 67  1  0
 34 68  1  0
 35 36  1  0
 35 69  1  0
 36 70  1  0
 37 38  2  0
 37 71  1  0
 38 72  1  0
M  CHG  1  11   1
M  END
> <Name>
ligand_168

> <activity>
1

$$$$
ligand_169
  SciTegic10272118463D

 69 73  0  0  1  0            999 V2000
    0.4587   -2.3198    5.5437 C   0  0
   -0.7393   -2.1995    4.8366 C   0  0
   -0.7793   -1.6846    3.5384 C   0  0
    1.6721   -1.9293    4.9783 C   0  0
    1.6605   -1.4096    3.6769 C   0  0
    0.4400   -1.2888    2.9701 C   0  0
    0.7931   -0.7403    1.7441 N   0  0
    2.1828   -0.5956    1.7852 C   0  0
    2.7090   -0.9688    2.9257 N   0  0
   -0.1713   -0.3827    0.6734 C   0  0  2  0  0  0
    0.2107   -0.8748   -0.7425 C   0  0
   -0.7046    1.0913    0.7923 C   0  0
    0.4504    0.0465   -1.6940 N   0  0
    0.3031   -2.0855   -0.9505 O   0  0
   -1.6684    1.2890    1.9925 C   0  0
   -2.2694    2.7085    2.0381 C   0  0
   -1.1771    3.7940    2.0281 C   0  0
   -0.2058    3.6123    0.8470 C   0  0
    0.3896    2.1911    0.8108 C   0  0
    0.4472   -2.8239    6.7988 F   0  0
   -1.8952   -2.5900    5.4202 F   0  0
    3.0628   -0.0863    0.6941 C   0  0
    3.5959    1.2034    0.7694 C   0  0
    4.4245    1.6757   -0.2450 C   0  0
    4.7361    0.8499   -1.3235 C   0  0
    4.2362   -0.4491   -1.3881 C   0  0
    3.4083   -0.9204   -0.3731 C   0  0
    5.7560    1.4377   -2.5852 Cl  0  0
    0.8633   -0.2303   -3.0712 C   0  0
   -0.2906   -0.1567   -4.0996 C   0  0  1  0  0  0
    0.2514   -0.2624   -5.5469 C   0  0
   -0.8723   -0.2134   -6.6065 C   0  0
   -1.9896   -1.2676   -6.3622 C   0  0  2  0  0  0
   -2.5237   -1.1509   -4.9068 C   0  0
   -1.4052   -1.2048   -3.8425 C   0  0
   -1.5249   -2.7169   -6.6887 C   0  0
   -0.5334   -2.8739   -7.4371 O   0  5
   -2.1974   -3.6623   -6.2183 O   0  0
   -1.7171   -1.6008    3.0100 H   0  0
    2.5943   -2.0272    5.5316 H   0  0
   -1.0457   -1.0083    0.8602 H   0  0
   -1.3177    1.2770   -0.0927 H   0  0
    0.3715    1.0206   -1.4422 H   0  0
   -2.4789    0.5602    1.9503 H   0  0
   -1.1381    1.1042    2.9274 H   0  0
   -2.9287    2.8502    1.1802 H   0  0
   -2.8960    2.8196    2.9239 H   0  0
   -1.6338    4.7837    1.9879 H   0  0
   -0.6190    3.7541    2.9649 H   0  0
   -0.7304    3.8098   -0.0892 H   0  0
    0.5953    4.3500    0.9080 H   0  0
    1.0202    2.0595    1.6902 H   0  0
    1.0432    2.1029   -0.0561 H   0  0
    3.3646    1.8423    1.6092 H   0  0
    4.8249    2.6775   -0.1925 H   0  0
    4.4878   -1.0901   -2.2203 H   0  0
    3.0257   -1.9299   -0.4230 H   0  0
    1.3652   -1.1980   -3.1446 H   0  0
    1.6226    0.5106   -3.3256 H   0  0
   -0.7467    0.8306   -4.0029 H   0  0
    0.9605    0.5439   -5.7395 H   0  0
    0.8154   -1.1897   -5.6602 H   0  0
   -1.3265    0.7783   -6.5851 H   0  0
   -0.4565   -0.3019   -7.6117 H   0  0
   -2.8080   -1.1018   -7.0637 H   0  0
   -3.0477   -0.1989   -4.8103 H   0  0
   -3.2863   -1.9032   -4.6987 H   0  0
   -0.9705   -2.2055   -3.8214 H   0  0
   -1.8501   -1.0500   -2.8591 H   0  0
  1  2  2  0
  1  4  1  0
  1 20  1  0
  2  3  1  0
  2 21  1  0
  3  6  2  0
  3 39  1  0
  4  5  2  0
  4 40  1  0
  5  6  1  0
  5  9  1  0
  6  7  1  0
  7  8  1  0
  7 10  1  0
  8  9  2  0
  8 22  1  0
 10 11  1  0
 10 12  1  0
 10 41  1  0
 11 13  1  0
 11 14  2  0
 12 15  1  0
 12 19  1  0
 12 42  1  0
 13 29  1  0
 13 43  1  0
 15 16  1  0
 15 44  1  0
 15 45  1  0
 16 17  1  0
 16 46  1  0
 16 47  1  0
 17 18  1  0
 17 48  1  0
 17 49  1  0
 18 19  1  0
 18 50  1  0
 18 51  1  0
 19 52  1  0
 19 53  1  0
 22 23  2  0
 22 27  1  0
 23 24  1  0
 23 54  1  0
 24 25  2  0
 24 55  1  0
 25 26  1  0
 25 28  1  0
 26 27  2  0
 26 56  1  0
 27 57  1  0
 29 30  1  0
 29 58  1  0
 29 59  1  0
 30 31  1  0
 30 35  1  0
 30 60  1  0
 31 32  1  0
 31 61  1  0
 31 62  1  0
 32 33  1  0
 32 63  1  0
 32 64  1  0
 33 34  1  0
 33 36  1  0
 33 65  1  0
 34 35  1  0
 34 66  1  0
 34 67  1  0
 35 68  1  0
 35 69  1  0
 36 37  1  0
 36 38  2  0
M  CHG  1  37  -1
M  END
> <Name>
ligand_169

> <activity>
1

$$$$
ligand_170
  SciTegic10272118463D

 47 47  0  0  1  0            999 V2000
   -6.4389    5.6155    2.1598 C   0  0
   -5.9438    4.3182    2.7869 C   0  0
   -4.6637    3.7136    2.1963 C   0  0
   -6.5541    3.7972    3.7199 O   0  0
   -4.1968    2.4082    2.8709 C   0  0
   -2.9394    1.8362    2.2367 C   0  0
   -1.6675    1.9194    2.6864 C   0  0
   -0.5294    1.2386    1.9296 C   0  0
   -1.2506    2.6501    3.9588 C   0  0
    0.2904    2.1694    1.0083 C   0  0  2  0  0  0
    1.3416    1.4331    0.2264 C   0  0
    2.5446    1.9483    0.5042 C   0  0
    2.3540    3.0038    1.4924 C   0  0
    1.0415    3.1011    1.7605 O   0  0
    3.2193    3.7034    2.0166 O   0  0
    3.9408    1.5859    0.0188 C   0  0
    4.5716    2.6242   -0.9266 C   0  0
    5.9604    2.2322   -1.4056 C   0  0
    6.3057    1.7227   -2.6077 C   0  0
    7.7534    1.4061   -2.9424 C   0  0
    5.3237    1.3974   -3.7245 C   0  0
   -7.3500    5.9570    2.6517 H   0  0
   -5.6835    6.3952    2.2567 H   0  0
   -6.6549    5.4664    1.1020 H   0  0
   -4.8321    3.5369    1.1336 H   0  0
   -3.8736    4.4617    2.2680 H   0  0
   -4.0584    2.5630    3.9401 H   0  0
   -4.9743    1.6466    2.7898 H   0  0
   -3.1211    1.2950    1.3188 H   0  0
    0.1242    0.7376    2.6460 H   0  0
   -0.9502    0.4389    1.3170 H   0  0
   -0.7632    1.9580    4.6459 H   0  0
   -0.5470    3.4493    3.7304 H   0  0
   -2.0795    3.1102    4.4918 H   0  0
   -0.3776    2.7092    0.3356 H   0  0
    1.1176    0.6186   -0.4469 H   0  0
    4.5865    1.4248    0.8842 H   0  0
    3.8807    0.6240   -0.4929 H   0  0
    3.9075    2.8088   -1.7699 H   0  0
    4.6636    3.5846   -0.4180 H   0  0
    6.7416    2.4058   -0.6790 H   0  0
    8.0745    1.9797   -3.8124 H   0  0
    8.4271    1.6449   -2.1182 H   0  0
    7.8680    0.3458   -3.1696 H   0  0
    5.4764    0.3749   -4.0715 H   0  0
    4.2810    1.4768   -3.4227 H   0  0
    5.4821    2.0679   -4.5695 H   0  0
  1  2  1  0
  1 22  1  0
  1 23  1  0
  1 24  1  0
  2  3  1  0
  2  4  2  0
  3  5  1  0
  3 25  1  0
  3 26  1  0
  5  6  1  0
  5 27  1  0
  5 28  1  0
  6  7  2  0
  6 29  1  0
  7  8  1  0
  7  9  1  0
  8 10  1  0
  8 30  1  0
  8 31  1  0
  9 32  1  0
  9 33  1  0
  9 34  1  0
 10 11  1  0
 10 14  1  0
 10 35  1  0
 11 12  2  0
 11 36  1  0
 12 13  1  0
 12 16  1  0
 13 14  1  0
 13 15  2  0
 16 17  1  0
 16 37  1  0
 16 38  1  0
 17 18  1  0
 17 39  1  0
 17 40  1  0
 18 19  2  0
 18 41  1  0
 19 20  1  0
 19 21  1  0
 20 42  1  0
 20 43  1  0
 20 44  1  0
 21 45  1  0
 21 46  1  0
 21 47  1  0
M  END
> <Name>
ligand_170

> <activity>
1

$$$$
ligand_171
  SciTegic10272118463D

 51 54  0  0  1  0            999 V2000
   -4.3332  -12.5435    1.6280 C   0  0
   -5.3799  -12.6064    0.5130 C   0  0
   -6.6709  -13.1593    0.8914 C   0  0
   -4.4231  -13.7881    2.5322 C   0  0
   -5.8401  -14.0590    3.1449 C   0  0  1  0  0  0
   -6.9264  -13.7891    2.0626 C   0  0
   -8.3417  -14.2461    2.4191 C   0  0
   -8.3466  -15.7347    2.7957 C   0  0
   -5.9360  -15.5672    3.5944 C   0  0  2  0  0  0
   -7.3824  -16.0321    3.9608 C   0  0  2  0  0  0
   -5.0143  -17.4626    5.1422 C   0  0
   -4.8934  -15.9871    4.6781 C   0  0
   -6.4628  -17.8344    5.5675 C   0  0  1  0  0  0
   -7.3593  -17.5312    4.3519 C   0  0  1  0  0  0
   -8.6690  -18.2472    4.6472 C   0  0
   -8.1744  -19.5705    5.2360 C   0  0
   -6.8098  -19.3207    5.7530 C   0  0
   -6.0850  -20.3259    6.2973 C   0  0
   -4.7184  -20.2209    6.9431 C   0  0
   -8.7680  -20.6488    5.2583 O   0  0
   -6.0805  -13.0775    4.3236 C   0  0
   -6.8574  -17.0775    6.8713 C   0  0
   -5.1553  -12.1995   -0.6248 O   0  0
   -3.3419  -12.4556    1.1826 H   0  0
   -4.5148  -11.6375    2.2061 H   0  0
   -7.4959  -13.0152    0.2088 H   0  0
   -4.1082  -14.6481    1.9373 H   0  0
   -3.6763  -13.7031    3.3227 H   0  0
   -8.7179  -13.6526    3.2530 H   0  0
   -9.0336  -14.0743    1.5931 H   0  0
   -9.3620  -16.0273    3.0659 H   0  0
   -8.0792  -16.3351    1.9242 H   0  0
   -5.6691  -16.1547    2.7124 H   0  0
   -7.7352  -15.4614    4.8196 H   0  0
   -4.6887  -18.1182    4.3326 H   0  0
   -4.3078  -17.6227    5.9542 H   0  0
   -3.8811  -15.8291    4.3060 H   0  0
   -4.9846  -15.3394    5.5489 H   0  0
   -6.9413  -18.0347    3.4719 H   0  0
   -9.2754  -17.7068    5.3741 H   0  0
   -9.2635  -18.4137    3.7488 H   0  0
   -6.5005  -21.3247    6.3236 H   0  0
   -4.6410  -20.9420    7.7569 H   0  0
   -3.9354  -20.4408    6.2173 H   0  0
   -4.5434  -19.2369    7.3735 H   0  0
   -5.2788  -13.1236    5.0607 H   0  0
   -6.1287  -12.0438    3.9786 H   0  0
   -7.0109  -13.2803    4.8529 H   0  0
   -6.2222  -17.3822    7.7036 H   0  0
   -6.7590  -15.9968    6.7826 H   0  0
   -7.8870  -17.2737    7.1718 H   0  0
  1  2  1  0
  1  4  1  0
  1 24  1  0
  1 25  1  0
  2  3  1  0
  2 23  2  0
  3  6  2  0
  3 26  1  0
  4  5  1  0
  4 27  1  0
  4 28  1  0
  5  6  1  0
  5  9  1  0
  5 21  1  0
  6  7  1  0
  7  8  1  0
  7 29  1  0
  7 30  1  0
  8 10  1  0
  8 31  1  0
  8 32  1  0
  9 10  1  0
  9 12  1  0
  9 33  1  0
 10 14  1  0
 10 34  1  0
 11 12  1  0
 11 13  1  0
 11 35  1  0
 11 36  1  0
 12 37  1  0
 12 38  1  0
 13 14  1  0
 13 17  1  0
 13 22  1  0
 14 15  1  0
 14 39  1  0
 15 16  1  0
 15 40  1  0
 15 41  1  0
 16 17  1  0
 16 20  2  0
 17 18  2  0
 18 19  1  0
 18 42  1  0
 19 43  1  0
 19 44  1  0
 19 45  1  0
 21 46  1  0
 21 47  1  0
 21 48  1  0
 22 49  1  0
 22 50  1  0
 22 51  1  0
M  END
> <Name>
ligand_171

> <activity>
1

$$$$
ligand_172
  SciTegic10272118463D

 54 58  0  0  1  0            999 V2000
   -2.5494    4.3469   -4.1427 O   0  5
   -1.5320    4.0958   -3.4564 C   0  0
   -0.4335    3.7331   -3.9370 O   0  0
   -1.6367    4.2360   -1.9655 C   0  0
   -2.8421    4.6173   -1.3569 C   0  0
   -2.9504    4.7496    0.0254 C   0  0
   -1.8465    4.4970    0.8312 C   0  0
   -0.6393    4.1079    0.2511 C   0  0
    0.5736    3.8364    1.1313 C   0  0
    1.0403    2.4442    1.0755 N   0  0
    2.1947    2.1137    0.4432 C   0  0
    2.9910    2.8730   -0.1128 O   0  0
    2.3342    0.5749    0.5376 C   0  0
    2.3636   -0.0589   -0.8855 C   0  0
    3.7070    0.1214   -1.6259 C   0  0
    4.8680   -0.2691   -0.7873 N   0  0
    4.9243    0.3687    0.5526 C   0  0
    3.6103    0.1867    1.3418 C   0  0
    6.4176   -0.4239   -1.6311 S   0  0
    6.1871   -1.0078   -2.9575 O   0  0
    7.1852    0.8152   -1.4598 O   0  0
    7.2139   -1.7058   -0.6362 C   0  0
    6.7291   -2.9948   -0.4503 C   0  0
    7.5532   -3.7644    0.3779 C   0  0
    8.6658   -3.0629    0.8239 C   0  0
    8.7009   -1.4371    0.2191 S   0  0
    1.0859    0.1847    1.2783 C   0  0
    0.5999   -1.0606    1.6766 C   0  0
   -0.6148   -1.1326    2.3592 C   0  0
   -1.2866   -2.8269    2.9068 Br  0  0
   -1.3428    0.0234    2.6447 C   0  0
   -0.8544    1.2659    2.2466 C   0  0
    0.3618    1.3266    1.5640 C   0  0
   -0.5330    3.9886   -1.1371 C   0  0
   -3.7180    4.8188   -1.9576 H   0  0
   -3.8889    5.0475    0.4692 H   0  0
   -1.9336    4.6016    1.9030 H   0  0
    0.3367    4.0808    2.1675 H   0  0
    1.3611    4.5275    0.8251 H   0  0
    2.1740   -1.1301   -0.7990 H   0  0
    1.5490    0.3238   -1.5041 H   0  0
    3.7178   -0.4800   -2.5353 H   0  0
    3.8552    1.1570   -1.9344 H   0  0
    5.7610   -0.0602    1.1047 H   0  0
    5.1560    1.4246    0.4071 H   0  0
    3.6664    0.7382    2.2824 H   0  0
    3.5396   -0.8630    1.6321 H   0  0
    5.8157   -3.3607   -0.8964 H   0  0
    7.3469   -4.7913    0.6415 H   0  0
    9.4544   -3.4200    1.4697 H   0  0
    1.1486   -1.9661    1.4632 H   0  0
   -2.2823   -0.0435    3.1733 H   0  0
   -1.4209    2.1569    2.4716 H   0  0
    0.4160    3.6949   -1.5647 H   0  0
  1  2  1  0
  2  3  2  0
  2  4  1  0
  4  5  2  0
  4 34  1  0
  5  6  1  0
  5 35  1  0
  6  7  2  0
  6 36  1  0
  7  8  1  0
  7 37  1  0
  8  9  1  0
  8 34  2  0
  9 10  1  0
  9 38  1  0
  9 39  1  0
 10 11  1  0
 10 33  1  0
 11 12  2  0
 11 13  1  0
 13 14  1  0
 13 18  1  0
 13 27  1  0
 14 15  1  0
 14 40  1  0
 14 41  1  0
 15 16  1  0
 15 42  1  0
 15 43  1  0
 16 17  1  0
 16 19  1  0
 17 18  1  0
 17 44  1  0
 17 45  1  0
 18 46  1  0
 18 47  1  0
 19 20  2  0
 19 21  2  0
 19 22  1  0
 22 23  2  0
 22 26  1  0
 23 24  1  0
 23 48  1  0
 24 25  2  0
 24 49  1  0
 25 26  1  0
 25 50  1  0
 27 28  2  0
 27 33  1  0
 28 29  1  0
 28 51  1  0
 29 30  1  0
 29 31  2  0
 31 32  1  0
 31 52  1  0
 32 33  2  0
 32 53  1  0
 34 54  1  0
M  CHG  1   1  -1
M  END
> <Name>
ligand_172

> <activity>
1

$$$$
ligand_173
  SciTegic10272118463D

 63 67  0  0  1  0            999 V2000
    0.6911    2.6505    0.2447 C   0  0
    0.2875    3.0712    1.5507 C   0  0
    1.1220    2.4447    2.4579 N   0  0
    2.0159    1.6631    1.7682 C   0  0
    1.8061    1.7440    0.4011 C   0  0
    2.5680    1.0470   -0.6403 C   0  0
    2.2307    1.2445   -1.8286 O   0  5
    3.5016    0.3048   -0.2600 O   0  0
    1.0706    2.5842    3.9046 C   0  0
   -1.0716    4.0409   -0.6502 C   0  0
   -1.4513    4.4499    0.6301 C   0  0
   -0.7762    3.9601    1.7543 C   0  0
   -0.0169    3.1564   -0.8591 C   0  0
   -2.5914    5.3954    0.7961 C   0  0
   -3.5688    7.4702    1.5883 C   0  0
   -4.8180    7.0927    1.0760 C   0  0
   -4.9407    5.8703    0.4223 C   0  0
   -3.8406    5.0322    0.2822 C   0  0
   -2.4564    6.6370    1.4484 C   0  0
   -1.1187    7.1189    1.9981 C   0  0
   -5.9649    7.8569    1.1687 O   0  0
   -5.9036    9.1450    1.7725 C   0  0
   -7.2707    9.7893    1.6806 C   0  0
   -9.1439   10.7576    0.9287 O   0  0
   -9.2883   10.6155    2.3037 N   0  0
   -8.1785   10.0495    2.7197 C   0  0
   -7.9332   10.2717    0.5565 C   0  0
   -7.6399   10.3495   -0.9329 C   0  0  2  0  0  0
   -8.4875    9.0091   -1.7474 Cl  0  0
   -6.1483   10.3064   -1.3008 C   0  0
   -7.9709    9.7452    4.1309 C   0  0
   -8.6830    8.6179    4.7308 C   0  0
   -8.4372    8.3780    6.0316 C   0  0
   -7.5830    9.0961    6.8324 N   0  0
   -6.8727   10.1678    6.3273 C   0  0
   -7.1081   10.4674    4.9046 C   0  0
   -6.2134   11.8470    4.2306 Cl  0  0
   -6.0885   10.8439    6.9991 O   0  0
   -7.3954    8.7431    8.2457 C   0  0
   -9.7948    7.5833    3.8224 Cl  0  0
    2.7532    1.0932    2.3158 H   0  0
    1.2223    3.6306    4.1715 H   0  0
    0.0947    2.2565    4.2640 H   0  0
    1.8470    1.9788    4.3744 H   0  0
   -1.6027    4.4222   -1.5106 H   0  0
   -1.0721    4.2586    2.7495 H   0  0
    0.2479    2.8681   -1.8656 H   0  0
   -3.4468    8.4148    2.0962 H   0  0
   -5.8972    5.5681    0.0217 H   0  0
   -3.9640    4.0854   -0.2237 H   0  0
   -0.2996    6.8624    1.3253 H   0  0
   -1.1027    8.2020    2.1257 H   0  0
   -0.9228    6.6654    2.9697 H   0  0
   -5.5892    9.0421    2.8121 H   0  0
   -5.1530    9.7713    1.2890 H   0  0
   -8.0600   11.2706   -1.3392 H   0  0
   -6.0103   10.4445   -2.3736 H   0  0
   -5.5916   11.0969   -0.7967 H   0  0
   -5.6933    9.3507   -1.0406 H   0  0
   -8.9078    7.5652    6.5674 H   0  0
   -6.7014    9.3902    8.7840 H   0  0
   -8.3518    8.7866    8.7675 H   0  0
   -7.0180    7.7231    8.3248 H   0  0
  1  2  1  0
  1  5  1  0
  1 13  2  0
  2  3  1  0
  2 12  2  0
  3  4  1  0
  3  9  1  0
  4  5  2  0
  4 41  1  0
  5  6  1  0
  6  7  1  0
  6  8  2  0
  9 42  1  0
  9 43  1  0
  9 44  1  0
 10 11  2  0
 10 13  1  0
 10 45  1  0
 11 12  1  0
 11 14  1  0
 12 46  1  0
 13 47  1  0
 14 18  2  0
 14 19  1  0
 15 16  1  0
 15 19  2  0
 15 48  1  0
 16 17  2  0
 16 21  1  0
 17 18  1  0
 17 49  1  0
 18 50  1  0
 19 20  1  0
 20 51  1  0
 20 52  1  0
 20 53  1  0
 21 22  1  0
 22 23  1  0
 22 54  1  0
 22 55  1  0
 23 26  1  0
 23 27  2  0
 24 25  1  0
 24 27  1  0
 25 26  2  0
 26 31  1  0
 27 28  1  0
 28 29  1  0
 28 30  1  0
 28 56  1  0
 30 57  1  0
 30 58  1  0
 30 59  1  0
 31 32  1  0
 31 36  2  0
 32 33  2  0
 32 40  1  0
 33 34  1  0
 33 60  1  0
 34 35  1  0
 34 39  1  0
 35 36  1  0
 35 38  2  0
 36 37  1  0
 39 61  1  0
 39 62  1  0
 39 63  1  0
M  CHG  1   7  -1
M  END
> <Name>
ligand_173

> <activity>
1

$$$$
ligand_174
  SciTegic10272118463D

 57 61  0  0  1  0            999 V2000
   -2.7304    6.9143    1.9627 O   0  5
   -1.6258    6.4082    2.2680 C   0  0
   -1.0326    6.6230    3.3503 O   0  0
   -0.9733    5.4878    1.2763 C   0  0
   -1.5881    5.2097    0.0453 C   0  0
   -0.9843    4.3560   -0.8739 C   0  0
    0.2398    3.7595   -0.5722 C   0  0
    0.9106    2.8384   -1.5821 C   0  0
    0.9518    1.4321   -1.1588 N   0  0
    2.1023    0.8653   -0.7149 C   0  0
    3.2138    1.3917   -0.6249 O   0  0
    1.7627   -0.5940   -0.3244 C   0  0
    2.0849   -0.8499    1.1775 C   0  0
    3.5926   -0.9937    1.4785 C   0  0
    4.2654   -1.9554    0.5667 N   0  0
    4.0354   -1.7180   -0.8820 C   0  0
    2.5357   -1.5990   -1.2278 C   0  0
    5.9123   -2.4242    1.0319 S   0  0
    5.8963   -2.7427    2.4651 O   0  0
    6.3994   -3.4179    0.0677 O   0  0
    6.9046   -0.9381    0.8274 C   0  0
    7.2145   -0.1541    1.9394 C   0  0
    7.9675    1.0079    1.8012 C   0  0
    8.4219    1.4057    0.5498 C   0  0
    8.1156    0.6298   -0.5619 C   0  0
    7.3625   -0.5342   -0.4300 C   0  0
    7.0846   -1.2588   -1.5381 F   0  0
    0.2834   -0.6583   -0.5808 C   0  0
   -0.6394   -1.6900   -0.4080 C   0  0
   -1.9788   -1.4684   -0.7293 C   0  0
   -3.2457   -2.8694   -0.4967 Br  0  0
   -2.4000   -0.2315   -1.2196 C   0  0
   -1.4759    0.7966   -1.3925 C   0  0
   -0.1384    0.5651   -1.0665 C   0  0
    0.8691    4.0372    0.6415 C   0  0
    0.2650    4.8909    1.5603 C   0  0
   -2.5392    5.6546   -0.2115 H   0  0
   -1.4724    4.1606   -1.8175 H   0  0
    1.9167    3.2234   -1.7585 H   0  0
    0.3873    2.9002   -2.5370 H   0  0
    1.6557   -0.0704    1.8103 H   0  0
    1.5941   -1.7726    1.4921 H   0  0
    4.1055   -0.0357    1.3867 H   0  0
    3.7412   -1.3288    2.5053 H   0  0
    4.5703   -0.8098   -1.1595 H   0  0
    4.4900   -2.5350   -1.4429 H   0  0
    2.0883   -2.5886   -1.1201 H   0  0
    2.4202   -1.3483   -2.2842 H   0  0
    6.8684   -0.4388    2.9224 H   0  0
    8.1984    1.6050    2.6713 H   0  0
    9.0055    2.3082    0.4420 H   0  0
    8.4645    0.9339   -1.5379 H   0  0
   -0.3321   -2.6537   -0.0294 H   0  0
   -3.4393   -0.0704   -1.4658 H   0  0
   -1.8077    1.7496   -1.7755 H   0  0
    1.8238    3.5891    0.8765 H   0  0
    0.7717    5.0839    2.4954 H   0  0
  1  2  1  0
  2  3  2  0
  2  4  1  0
  4  5  2  0
  4 36  1  0
  5  6  1  0
  5 37  1  0
  6  7  2  0
  6 38  1  0
  7  8  1  0
  7 35  1  0
  8  9  1  0
  8 39  1  0
  8 40  1  0
  9 10  1  0
  9 34  1  0
 10 11  2  0
 10 12  1  0
 12 13  1  0
 12 17  1  0
 12 28  1  0
 13 14  1  0
 13 41  1  0
 13 42  1  0
 14 15  1  0
 14 43  1  0
 14 44  1  0
 15 16  1  0
 15 18  1  0
 16 17  1  0
 16 45  1  0
 16 46  1  0
 17 47  1  0
 17 48  1  0
 18 19  2  0
 18 20  2  0
 18 21  1  0
 21 22  2  0
 21 26  1  0
 22 23  1  0
 22 49  1  0
 23 24  2  0
 23 50  1  0
 24 25  1  0
 24 51  1  0
 25 26  2  0
 25 52  1  0
 26 27  1  0
 28 29  2  0
 28 34  1  0
 29 30  1  0
 29 53  1  0
 30 31  1  0
 30 32  2  0
 32 33  1  0
 32 54  1  0
 33 34  2  0
 33 55  1  0
 35 36  2  0
 35 56  1  0
 36 57  1  0
M  CHG  1   1  -1
M  END
> <Name>
ligand_174

> <activity>
1

$$$$
ligand_175
  SciTegic10272118463D

 47 50  0  0  1  0            999 V2000
    2.9476   -2.3083   -1.7939 C   0  0
    2.5039   -3.5433   -1.0145 C   0  0
    2.8298   -4.7829   -1.5717 C   0  0
    2.4698   -5.9753   -0.9612 C   0  0
    1.7679   -5.9443    0.2324 C   0  0
    1.4295   -4.7236    0.8181 C   0  0
    0.6570   -4.7652    2.1364 C   0  0
    1.7935   -3.5014    0.2118 C   0  0
    1.4078   -2.3218    0.8913 N   0  0
    1.6033   -1.0034    0.5578 C   0  0
    0.6868   -0.0808    0.0387 C   0  0
    1.3512    1.1139   -0.1164 N   0  3
    2.6240    1.0196    0.3295 C   0  0
    3.6643    1.9545    0.4025 C   0  0
    4.8766    1.5619    0.9583 C   0  0
    5.0501    0.2725    1.4421 C   0  0
    4.0156   -0.6625    1.3711 C   0  0
    4.2454   -2.0581    1.9352 C   0  0
    2.8018   -0.3083    0.7997 N   0  0
   -0.7603   -0.2185   -0.3219 C   0  0
   -1.2263   -1.2852   -1.0994 C   0  0
   -0.3731   -2.2157   -1.5826 F   0  0
   -2.5777   -1.4015   -1.4120 C   0  0
   -3.4922   -0.4593   -0.9610 C   0  0
   -3.0412    0.6054   -0.1928 C   0  0
   -1.6916    0.7274    0.1252 C   0  0
   -1.2974    1.7760    0.8859 F   0  0
    2.1178   -1.6254   -1.9685 H   0  0
    3.7409   -1.7832   -1.2645 H   0  0
    3.3430   -2.5667   -2.7771 H   0  0
    3.3738   -4.8317   -2.5041 H   0  0
    2.7325   -6.9202   -1.4141 H   0  0
    1.4884   -6.8768    0.7014 H   0  0
    1.2147   -4.2545    2.9223 H   0  0
   -0.3115   -4.2760    2.0261 H   0  0
    0.4721   -5.7851    2.4766 H   0  0
    0.6935   -2.5319    1.5733 H   0  0
    3.5319    2.9648    0.0432 H   0  0
    5.6901    2.2702    1.0249 H   0  0
    6.0005    0.0019    1.8797 H   0  0
    3.4647   -2.3249    2.6478 H   0  0
    4.2665   -2.7985    1.1371 H   0  0
    5.1976   -2.1285    2.4623 H   0  0
   -2.9179   -2.2306   -2.0152 H   0  0
   -4.5402   -0.5524   -1.2063 H   0  0
   -3.7447    1.3437    0.1635 H   0  0
    0.9230    1.9522   -0.4826 H   0  0
  1  2  1  0
  1 28  1  0
  1 29  1  0
  1 30  1  0
  2  3  2  0
  2  8  1  0
  3  4  1  0
  3 31  1  0
  4  5  2  0
  4 32  1  0
  5  6  1  0
  5 33  1  0
  6  7  1  0
  6  8  2  0
  7 34  1  0
  7 35  1  0
  7 36  1  0
  8  9  1  0
  9 10  1  0
  9 37  1  0
 10 11  2  0
 10 19  1  0
 11 12  1  0
 11 20  1  0
 12 13  2  0
 12 47  1  0
 13 14  1  0
 13 19  1  0
 14 15  2  0
 14 38  1  0
 15 16  1  0
 15 39  1  0
 16 17  2  0
 16 40  1  0
 17 18  1  0
 17 19  1  0
 18 41  1  0
 18 42  1  0
 18 43  1  0
 20 21  2  0
 20 26  1  0
 21 22  1  0
 21 23  1  0
 23 24  2  0
 23 44  1  0
 24 25  1  0
 24 45  1  0
 25 26  2  0
 25 46  1  0
 26 27  1  0
M  CHG  1  12   1
M  END
> <Name>
ligand_175

> <activity>
1

$$$$
ligand_176
  SciTegic10272118463D

 80 82  0  0  1  0            999 V2000
   -1.4277    0.5411    1.0542 C   0  0
   -1.2213   -0.8068    1.3360 C   0  0
    0.0753   -1.3281    1.3394 C   0  0
    1.1656   -0.4999    1.0594 C   0  0
    0.9598    0.8481    0.7776 C   0  0
   -0.3364    1.3611    0.7714 C   0  0
   -0.5971    3.0703    0.4159 S   0  0
   -0.8283    3.2211   -1.4050 C   0  0
   -1.0588    4.7330   -1.7441 C   0  0
    0.4307    2.7349   -2.1639 C   0  0
   -2.0676    2.4192   -1.8725 C   0  0
   -1.0620    5.6014   -0.8402 O   0  5
   -1.2359    5.0144   -2.9525 O   0  0
    0.2987   -2.8014    1.6406 C   0  0
    0.2429   -3.6691    0.3693 C   0  0
    0.4647   -5.0984    0.6361 N   0  0
   -0.5681   -5.9139    0.9920 C   0  0
   -0.2492   -7.2129    1.1723 N   0  0
   -1.7229   -5.5034    1.1338 O   0  0
   -1.1782   -8.2951    1.5063 C   0  0
   -2.0918   -8.7229    0.3292 C   0  0
   -3.0589   -9.8612    0.7114 C   0  0
   -2.3151  -11.0702    1.3082 C   0  0
   -1.4224  -10.6567    2.4927 C   0  0
   -0.4530   -9.5199    2.1112 C   0  0
    1.8708   -5.5229    0.4991 C   0  0
    2.1865   -6.1456   -0.8741 C   0  0
    3.6558   -6.5822   -0.9994 C   0  0
    3.9802   -7.2041   -2.3727 C   0  0
    5.4196   -7.7573   -2.5079 C   0  0
    5.5793   -8.5722   -3.8160 C   0  0
    7.0060   -9.1274   -3.9977 C   0  0
    8.0673   -8.0154   -3.9089 C   0  0
    7.9304   -7.2057   -2.6065 C   0  0
    6.5036   -6.6514   -2.4186 C   0  0
   -2.4296    0.9450    1.0508 H   0  0
   -2.0675   -1.4439    1.5492 H   0  0
    2.1698   -0.8982    1.0585 H   0  0
    1.8017    1.4894    0.5608 H   0  0
    0.3296    2.8456   -3.2449 H   0  0
    1.3228    3.2846   -1.8590 H   0  0
    0.6233    1.6787   -1.9751 H   0  0
   -2.2442    2.5200   -2.9447 H   0  0
   -1.9472    1.3539   -1.6749 H   0  0
   -2.9743    2.7418   -1.3581 H   0  0
   -0.4506   -3.1358    2.3603 H   0  0
    1.2612   -2.9241    2.1400 H   0  0
    0.9860   -3.3113   -0.3453 H   0  0
   -0.7234   -3.5276   -0.1185 H   0  0
    0.7115   -7.4868    1.0300 H   0  0
   -1.8216   -7.8971    2.2955 H   0  0
   -2.6678   -7.8691   -0.0302 H   0  0
   -1.4736   -9.0420   -0.5116 H   0  0
   -3.7854   -9.4896    1.4358 H   0  0
   -3.6330  -10.1714   -0.1626 H   0  0
   -3.0309  -11.8289    1.6268 H   0  0
   -1.7008  -11.5357    0.5358 H   0  0
   -2.0509  -10.3327    3.3237 H   0  0
   -0.8613  -11.5191    2.8548 H   0  0
    0.2799   -9.8983    1.3964 H   0  0
    0.1152   -9.2189    2.9928 H   0  0
    2.5280   -4.6670    0.6616 H   0  0
    2.1246   -6.2320    1.2886 H   0  0
    1.5379   -7.0056   -1.0477 H   0  0
    1.9533   -5.4250   -1.6597 H   0  0
    4.2968   -5.7179   -0.8233 H   0  0
    3.8866   -7.3018   -0.2123 H   0  0
    3.2747   -8.0171   -2.5532 H   0  0
    3.7942   -6.4704   -3.1589 H   0  0
    5.5839   -8.4484   -1.6787 H   0  0
    4.8673   -9.3987   -3.8324 H   0  0
    5.3307   -7.9421   -4.6718 H   0  0
    7.2028   -9.8785   -3.2310 H   0  0
    7.0862   -9.6426   -4.9556 H   0  0
    9.0668   -8.4466   -3.9775 H   0  0
    7.9645   -7.3463   -4.7647 H   0  0
    8.1854   -7.8417   -1.7573 H   0  0
    8.6516   -6.3874   -2.5998 H   0  0
    6.3123   -5.8904   -3.1769 H   0  0
    6.4515   -6.1415   -1.4566 H   0  0
  1  2  1  0
  1  6  2  0
  1 36  1  0
  2  3  2  0
  2 37  1  0
  3  4  1  0
  3 14  1  0
  4  5  2  0
  4 38  1  0
  5  6  1  0
  5 39  1  0
  6  7  1  0
  7  8  1  0
  8  9  1  0
  8 10  1  0
  8 11  1  0
  9 12  1  0
  9 13  2  0
 10 40  1  0
 10 41  1  0
 10 42  1  0
 11 43  1  0
 11 44  1  0
 11 45  1  0
 14 15  1  0
 14 46  1  0
 14 47  1  0
 15 16  1  0
 15 48  1  0
 15 49  1  0
 16 17  1  0
 16 26  1  0
 17 18  1  0
 17 19  2  0
 18 20  1  0
 18 50  1  0
 20 21  1  0
 20 25  1  0
 20 51  1  0
 21 22  1  0
 21 52  1  0
 21 53  1  0
 22 23  1  0
 22 54  1  0
 22 55  1  0
 23 24  1  0
 23 56  1  0
 23 57  1  0
 24 25  1  0
 24 58  1  0
 24 59  1  0
 25 60  1  0
 25 61  1  0
 26 27  1  0
 26 62  1  0
 26 63  1  0
 27 28  1  0
 27 64  1  0
 27 65  1  0
 28 29  1  0
 28 66  1  0
 28 67  1  0
 29 30  1  0
 29 68  1  0
 29 69  1  0
 30 31  1  0
 30 35  1  0
 30 70  1  0
 31 32  1  0
 31 71  1  0
 31 72  1  0
 32 33  1  0
 32 73  1  0
 32 74  1  0
 33 34  1  0
 33 75  1  0
 33 76  1  0
 34 35  1  0
 34 77  1  0
 34 78  1  0
 35 79  1  0
 35 80  1  0
M  CHG  1  12  -1
M  END
> <Name>
ligand_176

> <activity>
1

$$$$
ligand_177
  SciTegic10272118463D

 44 45  0  0  1  0            999 V2000
    4.7899    0.7922   -4.4638 Cl  0  0
    4.0449   -1.6959   -6.2472 Cl  0  0
    2.4324    0.7341   -1.5461 O   0  0
    6.6036    2.4639   -0.1513 O   0  0
    2.1960    1.1637    0.6770 O   0  0
    8.1987    1.9495   -1.7291 O   0  0
    6.0681   -0.6297    1.2238 N   0  0
    5.1435    0.1919   -1.3984 C   0  0  1  0  0  0
    4.2639    0.2355   -0.1207 C   0  0
    6.6813    0.1997   -1.0440 C   0  0  2  0  0  0
    4.8006   -0.9692   -2.3551 C   0  0
    4.8058   -0.1298    1.0814 C   0  0
    6.9520   -0.4865    0.3100 C   0  0
    2.8751    0.7469   -0.2647 C   0  0
    4.0814   -0.1806    2.4278 C   0  0
    8.3304   -1.0661    0.5766 C   0  0
    7.2528    1.6344   -1.0049 C   0  0
    4.6175   -0.7755   -3.7369 C   0  0
    4.6753   -2.2589   -1.8268 C   0  0
    4.2945   -1.8730   -4.5436 C   0  0
    4.3587   -3.3429   -2.6326 C   0  0
    4.1661   -3.1429   -3.9907 C   0  0
    1.1298    1.1858   -1.8877 C   0  0
    7.0059    3.8183   -0.0160 C   0  0
    0.9335    1.0334   -3.3993 C   0  0
    4.9200    1.1118   -1.9391 H   0  0
    7.2377   -0.3285   -1.8192 H   0  0
    3.0621   -0.5497    2.3167 H   0  0
    4.5647   -0.8403    3.1517 H   0  0
    4.0421    0.8173    2.8649 H   0  0
    8.5733   -1.8324   -0.1597 H   0  0
    9.0946   -0.2913    0.5143 H   0  0
    8.4086   -1.5236    1.5645 H   0  0
    4.8209   -2.4288   -0.7701 H   0  0
    4.2619   -4.3306   -2.2062 H   0  0
    3.9173   -3.9839   -4.6216 H   0  0
    0.3793    0.6034   -1.3506 H   0  0
    1.0070    2.2299   -1.5953 H   0  0
    6.3691    4.3204    0.7124 H   0  0
    8.0378    3.8885    0.3310 H   0  0
    6.9192    4.3500   -0.9648 H   0  0
   -0.0609    1.3659   -3.6970 H   0  0
    1.6628    1.6260   -3.9527 H   0  0
    1.0443   -0.0067   -3.7082 H   0  0
  1 18  1  0
  2 20  1  0
  3 14  1  0
  3 23  1  0
  4 17  1  0
  4 24  1  0
  5 14  2  0
  6 17  2  0
  7 12  1  0
  7 13  2  0
  8  9  1  0
  8 10  1  0
  8 11  1  0
  8 26  1  0
  9 12  2  0
  9 14  1  0
 10 13  1  0
 10 17  1  0
 10 27  1  0
 11 18  2  0
 11 19  1  0
 12 15  1  0
 13 16  1  0
 15 28  1  0
 15 29  1  0
 15 30  1  0
 16 31  1  0
 16 32  1  0
 16 33  1  0
 18 20  1  0
 19 21  2  0
 19 34  1  0
 20 22  2  0
 21 22  1  0
 21 35  1  0
 22 36  1  0
 23 25  1  0
 23 37  1  0
 23 38  1  0
 24 39  1  0
 24 40  1  0
 24 41  1  0
 25 42  1  0
 25 43  1  0
 25 44  1  0
M  END
> <Name>
ligand_177

> <activity>
1

$$$$
ligand_178
  SciTegic10272118463D

 54 56  0  0  1  0            999 V2000
   -0.1276    0.1124   -0.3983 C   0  0
   -0.0093    1.3956   -0.9247 C   0  0
   -1.1191    2.2302   -0.9834 C   0  0
   -2.3652    1.7979   -0.5275 C   0  0
   -2.5265    0.4928    0.0009 C   0  0
   -1.3833   -0.3285    0.0449 C   0  0
   -3.3826    2.7075   -0.6355 O   0  0
    1.0367   -0.6760   -0.3844 N   0  0
    1.3199   -1.7400    0.3961 C   0  0
    0.6004   -2.2048    1.2804 O   0  0
    2.6601   -2.3600    0.1133 C   0  0
    2.7804   -3.4028   -0.8243 C   0  0
    4.0280   -3.9745   -1.0753 C   0  0
    5.1724   -3.5349   -0.4100 C   0  0
    5.0493   -2.4975    0.5207 C   0  0
    3.8118   -1.9115    0.7866 C   0  0
    6.3869   -4.1718   -0.7296 N   0  0
    1.4188   -4.0220   -1.7030 Cl  0  0
   -3.8628   -0.1182    0.5336 C   0  0
   -4.2317   -1.3653   -0.3111 C   0  0
   -3.6831   -0.5435    2.0148 C   0  0
   -5.1002    0.8179    0.4975 C   0  0
    3.7636   -0.6310    1.9559 Cl  0  0
    7.7119   -3.8281   -0.2062 C   0  0
    7.8791   -3.9217    1.3270 C   0  0
    8.6578   -2.6641    1.7486 C   0  0
    9.2585   -2.0993    0.4576 C   0  0
    8.2220   -2.4360   -0.6157 C   0  0
    0.9426    1.7587   -1.2855 H   0  0
   -1.0081    3.2257   -1.3889 H   0  0
   -1.4846   -1.3345    0.4184 H   0  0
   -4.2161    2.3624   -0.3084 H   0  0
    1.7671   -0.3719   -1.0107 H   0  0
    4.1004   -4.7744   -1.7985 H   0  0
    5.9104   -2.1242    1.0496 H   0  0
    6.3766   -4.7675   -1.5448 H   0  0
   -5.1685   -1.8155    0.0213 H   0  0
   -4.3527   -1.1088   -1.3646 H   0  0
   -3.4757   -2.1487   -0.2542 H   0  0
   -4.6018   -0.9611    2.4296 H   0  0
   -2.9141   -1.3055    2.1432 H   0  0
   -3.4037    0.3060    2.6398 H   0  0
   -5.9856    0.3196    0.8961 H   0  0
   -4.9573    1.7111    1.1074 H   0  0
   -5.3588    1.1190   -0.5185 H   0  0
    8.4216   -4.5347   -0.6407 H   0  0
    6.9370   -4.0050    1.8695 H   0  0
    8.4503   -4.8178    1.5736 H   0  0
    7.9725   -1.9333    2.1808 H   0  0
    9.4175   -2.8753    2.5022 H   0  0
    9.4657   -1.0304    0.5224 H   0  0
   10.2007   -2.6035    0.2351 H   0  0
    8.6493   -2.4299   -1.6192 H   0  0
    7.4279   -1.6893   -0.6020 H   0  0
  1  2  2  0
  1  6  1  0
  1  8  1  0
  2  3  1  0
  2 29  1  0
  3  4  2  0
  3 30  1  0
  4  5  1  0
  4  7  1  0
  5  6  2  0
  5 19  1  0
  6 31  1  0
  7 32  1  0
  8  9  1  0
  8 33  1  0
  9 10  2  0
  9 11  1  0
 11 12  2  0
 11 16  1  0
 12 13  1  0
 12 18  1  0
 13 14  2  0
 13 34  1  0
 14 15  1  0
 14 17  1  0
 15 16  2  0
 15 35  1  0
 16 23  1  0
 17 24  1  0
 17 36  1  0
 19 20  1  0
 19 21  1  0
 19 22  1  0
 20 37  1  0
 20 38  1  0
 20 39  1  0
 21 40  1  0
 21 41  1  0
 21 42  1  0
 22 43  1  0
 22 44  1  0
 22 45  1  0
 24 25  1  0
 24 28  1  0
 24 46  1  0
 25 26  1  0
 25 47  1  0
 25 48  1  0
 26 27  1  0
 26 49  1  0
 26 50  1  0
 27 28  1  0
 27 51  1  0
 27 52  1  0
 28 53  1  0
 28 54  1  0
M  END
> <Name>
ligand_178

> <activity>
1

$$$$
ligand_179
  SciTegic10272118463D

 60 64  0  0  1  0            999 V2000
    1.9191    2.4606    0.5157 C   0  0
    0.9428    2.1784    1.5220 C   0  0
    1.5405    1.3440    2.4486 N   0  0
    2.8347    1.1048    2.0567 C   0  0
    3.1329    1.7625    0.8743 C   0  0
    4.4147    1.7368    0.1622 C   0  0
    4.4968    2.3970   -0.8972 O   0  5
    5.3327    1.0539    0.6700 O   0  0
    0.9120    0.8044    3.6440 C   0  0
    0.2551    3.8200   -0.5907 C   0  0
   -0.6871    3.5428    0.4023 C   0  0
   -0.3542    2.7062    1.4742 C   0  0
    1.5447    3.2971   -0.5501 C   0  0
   -2.0553    4.1260    0.3065 C   0  0
   -3.8987    5.4439    1.1740 C   0  0
   -4.6599    5.1543    0.0330 C   0  0
   -4.1084    4.3561   -0.9647 C   0  0
   -2.8210    3.8494   -0.8310 C   0  0
   -2.6023    4.9431    1.3156 C   0  0
   -1.8138    5.3207    2.5644 C   0  0
   -5.9449    5.6110   -0.1866 O   0  0
   -6.5473    6.4945    0.7537 C   0  0
   -7.9047    6.9114    0.2259 C   0  0
   -9.5429    7.8039   -1.0122 O   0  0
  -10.1537    7.1113    0.0261 N   0  0
   -9.1758    6.5993    0.7394 C   0  0
   -8.1971    7.6942   -0.8863 C   0  0
   -7.3907    8.3970   -1.9663 C   0  0  2  0  0  0
   -7.3311    7.3453   -3.4045 Cl  0  0
   -5.9606    8.7825   -1.5560 C   0  0
   -9.4495    5.8045    1.9309 C   0  0
  -10.0950    4.6087    1.9011 C   0  0
  -10.2838    3.9333    3.1784 C   0  0
   -9.8199    4.4981    4.3182 C   0  0
   -9.1269    5.7829    4.3357 C   0  0
   -8.9918    6.3598    3.1073 N   0  0
  -10.6654    3.8501    0.4069 Cl  0  0
   -8.6972    6.3131    5.3569 O   0  0
    3.4625    0.4681    2.6639 H   0  0
    0.5878    1.6262    4.2832 H   0  0
    0.0470    0.2054    3.3574 H   0  0
    1.6146    0.1778    4.1951 H   0  0
   -0.0144    4.4637   -1.4158 H   0  0
   -1.0805    2.4736    2.2393 H   0  0
    2.2450    3.5391   -1.3358 H   0  0
   -4.3027    6.0628    1.9606 H   0  0
   -4.6839    4.1266   -1.8496 H   0  0
   -2.4184    3.2269   -1.6171 H   0  0
   -0.7692    5.5233    2.3258 H   0  0
   -2.2152    6.2175    3.0380 H   0  0
   -1.8510    4.5124    3.2947 H   0  0
   -6.6347    5.9861    1.7146 H   0  0
   -5.9216    7.3712    0.9259 H   0  0
   -7.9083    9.3069   -2.2733 H   0  0
   -5.4740    9.3576   -2.3444 H   0  0
   -5.9572    9.3968   -0.6550 H   0  0
   -5.3397    7.9060   -1.3718 H   0  0
  -10.7935    2.9814    3.2150 H   0  0
   -9.9635    3.9900    5.2605 H   0  0
   -8.5214    7.2527    3.1004 H   0  0
  1  2  1  0
  1  5  1  0
  1 13  2  0
  2  3  1  0
  2 12  2  0
  3  4  1  0
  3  9  1  0
  4  5  2  0
  4 39  1  0
  5  6  1  0
  6  7  1  0
  6  8  2  0
  9 40  1  0
  9 41  1  0
  9 42  1  0
 10 11  2  0
 10 13  1  0
 10 43  1  0
 11 12  1  0
 11 14  1  0
 12 44  1  0
 13 45  1  0
 14 18  2  0
 14 19  1  0
 15 16  1  0
 15 19  2  0
 15 46  1  0
 16 17  2  0
 16 21  1  0
 17 18  1  0
 17 47  1  0
 18 48  1  0
 19 20  1  0
 20 49  1  0
 20 50  1  0
 20 51  1  0
 21 22  1  0
 22 23  1  0
 22 52  1  0
 22 53  1  0
 23 26  1  0
 23 27  2  0
 24 25  1  0
 24 27  1  0
 25 26  2  0
 26 31  1  0
 27 28  1  0
 28 29  1  0
 28 30  1  0
 28 54  1  0
 30 55  1  0
 30 56  1  0
 30 57  1  0
 31 32  2  0
 31 36  1  0
 32 33  1  0
 32 37  1  0
 33 34  2  0
 33 58  1  0
 34 35  1  0
 34 59  1  0
 35 36  1  0
 35 38  2  0
 36 60  1  0
M  CHG  1   7  -1
M  END
> <Name>
ligand_179

> <activity>
1

$$$$
ligand_180
  SciTegic10272118463D

 72 76  0  0  1  0            999 V2000
    8.4205  -20.8283   -3.0475 C   0  0
    7.9502  -21.8370   -2.1847 C   0  0
    8.0593  -21.6497   -0.7911 C   0  0
    8.9990  -19.6482   -2.5833 C   0  0
    9.1139  -19.4672   -1.2031 C   0  0
    8.6430  -20.4648   -0.3236 C   0  0
    8.9050  -19.9653    0.9444 N   0  0
    9.5353  -18.7382    0.7459 C   0  0
    9.6445  -18.4128   -0.5186 N   0  0
    8.5693  -20.6491    2.2156 C   0  0  1  0  0  0
    9.7787  -21.4481    2.7550 C   0  0
   10.1793  -22.4946    2.0087 N   0  0
   10.3409  -21.1189    3.8004 O   0  0
    7.3646  -23.0272   -2.7079 N   0  0
    7.4465  -23.3274   -4.1386 C   0  0
    7.0998  -24.1696   -1.8310 C   0  0
    7.8223  -19.7307    3.2501 C   0  0
   11.2953  -23.3916    2.3123 C   0  0
   10.0443  -17.8361    1.8167 C   0  0
   11.1218  -18.2233    2.6172 C   0  0
   11.5806  -17.3781    3.6238 C   0  0
   10.9677  -16.1420    3.8210 C   0  0
    9.9035  -15.7424    3.0147 C   0  0
    9.4449  -16.5880    2.0081 C   0  0
   11.0105  -24.3780    3.4735 C   0  0
   12.2032  -25.3100    3.7673 C   0  0
   12.6742  -26.0548    2.5046 C   0  0
   12.9810  -25.0794    1.3532 C   0  0
   11.7881  -24.1481    1.0570 C   0  0
    6.6542  -18.9245    2.6099 C   0  0
    5.9333  -18.0134    3.6224 C   0  0
    5.4246  -18.8034    4.8405 C   0  0
    6.5544  -19.6168    5.4951 C   0  0
    7.2771  -20.5209    4.4764 C   0  0
   11.5341  -15.0956    5.0709 Cl  0  0
    8.3545  -20.9353   -4.1184 H   0  0
    7.7143  -22.3895   -0.0877 H   0  0
    9.3521  -18.8972   -3.2747 H   0  0
    7.8319  -21.4090    1.9530 H   0  0
    9.6709  -22.6974    1.1608 H   0  0
    6.8382  -24.1923   -4.4060 H   0  0
    7.1001  -22.4926   -4.7474 H   0  0
    8.4786  -23.5396   -4.4202 H   0  0
    6.5384  -24.9519   -2.3433 H   0  0
    8.0387  -24.6011   -1.4818 H   0  0
    6.5201  -23.8807   -0.9547 H   0  0
    8.5373  -19.0095    3.6464 H   0  0
   12.1186  -22.7433    2.6246 H   0  0
   11.6052  -19.1764    2.4614 H   0  0
   12.4090  -17.6818    4.2468 H   0  0
    9.4342  -14.7817    3.1681 H   0  0
    8.6180  -16.2785    1.3852 H   0  0
   10.7530  -23.8283    4.3799 H   0  0
   10.1337  -24.9803    3.2297 H   0  0
   13.0297  -24.7227    4.1707 H   0  0
   11.9332  -26.0268    4.5438 H   0  0
   13.5568  -26.6539    2.7318 H   0  0
   11.9019  -26.7580    2.1887 H   0  0
   13.8544  -24.4782    1.6111 H   0  0
   13.2507  -25.6365    0.4551 H   0  0
   10.9680  -24.7365    0.6417 H   0  0
   12.0695  -23.4359    0.2796 H   0  0
    7.0084  -18.3040    1.7878 H   0  0
    5.9335  -19.6159    2.1702 H   0  0
    6.6180  -17.2316    3.9557 H   0  0
    5.1010  -17.5022    3.1372 H   0  0
    4.9818  -18.1235    5.5694 H   0  0
    4.6259  -19.4780    4.5278 H   0  0
    7.2762  -18.9355    5.9485 H   0  0
    6.1532  -20.2204    6.3102 H   0  0
    6.5891  -21.2957    4.1341 H   0  0
    8.0791  -21.0440    4.9961 H   0  0
  1  2  2  0
  1  4  1  0
  1 36  1  0
  2  3  1  0
  2 14  1  0
  3  6  2  0
  3 37  1  0
  4  5  2  0
  4 38  1  0
  5  6  1  0
  5  9  1  0
  6  7  1  0
  7  8  1  0
  7 10  1  0
  8  9  2  0
  8 19  1  0
 10 11  1  0
 10 17  1  0
 10 39  1  0
 11 12  1  0
 11 13  2  0
 12 18  1  0
 12 40  1  0
 14 15  1  0
 14 16  1  0
 15 41  1  0
 15 42  1  0
 15 43  1  0
 16 44  1  0
 16 45  1  0
 16 46  1  0
 17 30  1  0
 17 34  1  0
 17 47  1  0
 18 25  1  0
 18 29  1  0
 18 48  1  0
 19 20  2  0
 19 24  1  0
 20 21  1  0
 20 49  1  0
 21 22  2  0
 21 50  1  0
 22 23  1  0
 22 35  1  0
 23 24  2  0
 23 51  1  0
 24 52  1  0
 25 26  1  0
 25 53  1  0
 25 54  1  0
 26 27  1  0
 26 55  1  0
 26 56  1  0
 27 28  1  0
 27 57  1  0
 27 58  1  0
 28 29  1  0
 28 59  1  0
 28 60  1  0
 29 61  1  0
 29 62  1  0
 30 31  1  0
 30 63  1  0
 30 64  1  0
 31 32  1  0
 31 65  1  0
 31 66  1  0
 32 33  1  0
 32 67  1  0
 32 68  1  0
 33 34  1  0
 33 69  1  0
 33 70  1  0
 34 71  1  0
 34 72  1  0
M  END
> <Name>
ligand_180

> <activity>
1

$$$$
ligand_181
  SciTegic10272118463D

 41 42  0  0  1  0            999 V2000
    0.5561   -0.0785    0.3823 C   0  0
    0.7159    1.2516    0.7626 C   0  0
   -0.3901    2.0876    0.8616 C   0  0
   -1.6710    1.6054    0.5919 C   0  0
   -1.8745    0.2562    0.2188 C   0  0
   -0.7347   -0.5677    0.1275 C   0  0
   -2.7013    2.5014    0.7135 O   0  0
    1.7224   -0.8614    0.3181 N   0  0
    1.9403   -1.9810   -0.4032 C   0  0
    1.1438   -2.5138   -1.1761 O   0  0
    3.3079   -2.5736   -0.2053 C   0  0
    3.5273   -3.5437    0.7931 C   0  0
    4.7988   -4.0921    0.9667 C   0  0
    5.8586   -3.6893    0.1581 C   0  0
    5.6498   -2.7322   -0.8317 C   0  0
    4.3854   -2.1725   -1.0203 C   0  0
    7.1246   -4.2431    0.3384 N   0  0
    2.2614   -4.0983    1.8416 Cl  0  0
   -3.2980   -0.3131   -0.0790 C   0  0
   -4.2024   -0.1966    1.1750 C   0  0
   -3.9448    0.4402   -1.2700 C   0  0
   -3.2911   -1.8182   -0.4713 C   0  0
    4.2092   -0.9860   -2.2734 Cl  0  0
    1.6978    1.6495    0.9769 H   0  0
   -0.2446    3.1183    1.1511 H   0  0
   -0.8418   -1.6078   -0.1275 H   0  0
   -2.4051    3.3762    0.9735 H   0  0
    2.5068   -0.5059    0.8438 H   0  0
    4.9577   -4.8348    1.7354 H   0  0
    6.4703   -2.4179   -1.4609 H   0  0
    7.8664   -3.9981   -0.3013 H   0  0
    7.2466   -4.9884    1.0087 H   0  0
   -5.1778   -0.6566    1.0096 H   0  0
   -3.7529   -0.6947    2.0352 H   0  0
   -4.3991    0.8341    1.4647 H   0  0
   -4.9087    0.0074   -1.5421 H   0  0
   -4.1345    1.4910   -1.0581 H   0  0
   -3.3108    0.3979   -2.1567 H   0  0
   -4.2974   -2.1857   -0.6786 H   0  0
   -2.7019   -2.0018   -1.3712 H   0  0
   -2.8906   -2.4455    0.3266 H   0  0
  1  2  2  0
  1  6  1  0
  1  8  1  0
  2  3  1  0
  2 24  1  0
  3  4  2  0
  3 25  1  0
  4  5  1  0
  4  7  1  0
  5  6  2  0
  5 19  1  0
  6 26  1  0
  7 27  1  0
  8  9  1  0
  8 28  1  0
  9 10  2  0
  9 11  1  0
 11 12  2  0
 11 16  1  0
 12 13  1  0
 12 18  1  0
 13 14  2  0
 13 29  1  0
 14 15  1  0
 14 17  1  0
 15 16  2  0
 15 30  1  0
 16 23  1  0
 17 31  1  0
 17 32  1  0
 19 20  1  0
 19 21  1  0
 19 22  1  0
 20 33  1  0
 20 34  1  0
 20 35  1  0
 21 36  1  0
 21 37  1  0
 21 38  1  0
 22 39  1  0
 22 40  1  0
 22 41  1  0
M  END
> <Name>
ligand_181

> <activity>
1

$$$$
ligand_182
  SciTegic10272118463D

 69 73  0  0  1  0            999 V2000
   -0.7616    0.3911    0.2146 C   0  0
   -0.0615   -0.7412   -0.1784 N   0  0
   -0.4881   -2.1409    0.0701 C   0  0  2  0  0  0
    0.5970   -3.0235    0.7400 C   0  0
    1.4138   -2.5083    1.5054 O   0  0
    0.5925   -4.3429    0.4730 N   0  0
    1.5208   -5.3360    1.0173 C   0  0
    1.2572   -5.6941    2.5021 C   0  0
    2.2500   -6.7410    3.0460 C   0  0
    2.2919   -8.0039    2.1658 C   0  0
    2.5758   -7.6580    0.6923 C   0  0
    1.5822   -6.6124    0.1467 C   0  0
   -1.2492   -2.7571   -1.1596 C   0  0
   -2.5598   -1.9965   -1.4957 C   0  0
   -3.3590   -2.6736   -2.6273 C   0  0
   -2.5011   -2.8827   -3.8895 C   0  0
   -1.1951   -3.6357   -3.5724 C   0  0
   -0.3991   -2.9501   -2.4441 C   0  0
    1.0897   -0.3176   -0.8675 C   0  0
    1.0603    1.0864   -0.9166 C   0  0
   -0.0850    1.4868   -0.2543 N   0  3
    2.0650    1.8251   -1.5460 C   0  0
    3.1117    1.1095   -2.1257 C   0  0
    3.1552   -0.2807   -2.0781 C   0  0
    2.1531   -1.0217   -1.4515 C   0  0
   -2.0296    0.4727    0.9915 C   0  0
   -2.1116   -0.0743    2.2745 C   0  0
   -3.3001    0.0121    2.9944 C   0  0
   -4.4093    0.6526    2.4365 C   0  0
   -4.3246    1.2070    1.1569 C   0  0
   -3.1359    1.1214    0.4375 C   0  0
   -5.7119    0.7461    3.2171 C   0  0
   -6.0485    2.0744    3.5619 O   0  0
   -1.2331   -2.1019    0.8619 H   0  0
   -0.1203   -4.7003   -0.1456 H   0  0
    2.5119   -4.8775    0.9603 H   0  0
    1.3075   -4.7970    3.1207 H   0  0
    0.2395   -6.0735    2.6077 H   0  0
    3.2475   -6.3013    3.0962 H   0  0
    1.9851   -7.0090    4.0696 H   0  0
    3.0483   -8.6950    2.5398 H   0  0
    1.3378   -8.5285    2.2382 H   0  0
    3.5930   -7.2738    0.6001 H   0  0
    2.5370   -8.5622    0.0835 H   0  0
    0.5884   -7.0596    0.0864 H   0  0
    1.8568   -6.3524   -0.8769 H   0  0
   -1.5787   -3.7533   -0.8571 H   0  0
   -3.1892   -1.9197   -0.6078 H   0  0
   -2.3292   -0.9731   -1.7947 H   0  0
   -3.7327   -3.6380   -2.2796 H   0  0
   -4.2393   -2.0772   -2.8701 H   0  0
   -3.0721   -3.4259   -4.6435 H   0  0
   -2.2620   -1.9130   -4.3292 H   0  0
   -1.4282   -4.6611   -3.2809 H   0  0
   -0.5806   -3.7081   -4.4707 H   0  0
   -0.0532   -1.9832   -2.8092 H   0  0
    0.4930   -3.5387   -2.2299 H   0  0
    2.0429    2.9045   -1.5853 H   0  0
    3.9087    1.6452   -2.6208 H   0  0
    3.9860   -0.7975   -2.5364 H   0  0
    2.2128   -2.0991   -1.4245 H   0  0
   -1.2558   -0.5643    2.7172 H   0  0
   -3.3535   -0.4154    3.9852 H   0  0
   -5.1787    1.7064    0.7224 H   0  0
   -3.0815    1.5518   -0.5522 H   0  0
   -6.5177    0.3252    2.6141 H   0  0
   -5.6604    0.1502    4.1297 H   0  0
   -6.8436    2.0620    4.1003 H   0  0
   -0.4081    2.4303   -0.0947 H   0  0
  1  2  1  0
  1 21  2  0
  1 26  1  0
  2  3  1  0
  2 19  1  0
  3  4  1  0
  3 13  1  0
  3 34  1  0
  4  5  2  0
  4  6  1  0
  6  7  1  0
  6 35  1  0
  7  8  1  0
  7 12  1  0
  7 36  1  0
  8  9  1  0
  8 37  1  0
  8 38  1  0
  9 10  1  0
  9 39  1  0
  9 40  1  0
 10 11  1  0
 10 41  1  0
 10 42  1  0
 11 12  1  0
 11 43  1  0
 11 44  1  0
 12 45  1  0
 12 46  1  0
 13 14  1  0
 13 18  1  0
 13 47  1  0
 14 15  1  0
 14 48  1  0
 14 49  1  0
 15 16  1  0
 15 50  1  0
 15 51  1  0
 16 17  1  0
 16 52  1  0
 16 53  1  0
 17 18  1  0
 17 54  1  0
 17 55  1  0
 18 56  1  0
 18 57  1  0
 19 20  2  0
 19 25  1  0
 20 21  1  0
 20 22  1  0
 21 69  1  0
 22 23  2  0
 22 58  1  0
 23 24  1  0
 23 59  1  0
 24 25  2  0
 24 60  1  0
 25 61  1  0
 26 27  2  0
 26 31  1  0
 27 28  1  0
 27 62  1  0
 28 29  2  0
 28 63  1  0
 29 30  1  0
 29 32  1  0
 30 31  2  0
 30 64  1  0
 31 65  1  0
 32 33  1  0
 32 66  1  0
 32 67  1  0
 33 68  1  0
M  CHG  1  21   1
M  END
> <Name>
ligand_182

> <activity>
1

$$$$
ligand_183
  SciTegic10272118463D

 71 74  0  0  1  0            999 V2000
   20.2590   -3.2226    1.2596 C   0  0
   13.6949   -7.0999    0.4419 C   0  0
   19.3480   -5.7590   -1.3254 C   0  0
   14.9246   -3.8281   -0.0981 C   0  0
   13.3156   -6.8676   -1.0374 C   0  0
   13.6859   -4.3015   -2.7229 O   0  0
   18.1996   -6.6228   -0.7713 C   0  0
   11.1002   -6.0436   -0.2575 C   0  0
   17.9566   -3.2123    0.2494 C   0  0
   11.4990   -2.3293    0.7699 C   0  0
   11.4657   -3.4333   -1.8658 O   0  0
   17.0295   -3.7409    1.1043 N   0  0
   13.5680   -3.5140   -0.2086 C   0  0
   17.7041   -2.3698   -0.6152 O   0  0
   21.1432   -4.9644    0.1449 N   0  0
   19.9038   -4.7968   -0.2752 C   0  0
   12.5264   -7.3287    1.2306 O   0  0
   11.5807   -6.2595    1.1909 C   0  0
   12.6976   -4.1979   -1.6421 S   0  0
   12.9697   -2.7217    0.7948 C   0  0
   15.0837   -2.5906    1.9740 C   0  0
   21.3507   -4.0246    1.0758 N   0  0
   22.6465   -3.9320    1.7334 C   0  0
   18.9388   -5.0294   -2.6184 C   0  0
   13.7365   -2.2648    1.8721 C   0  0
   15.6778   -3.3744    0.9866 C   0  0
   12.2372   -5.8576   -1.1910 N   0  0
   19.3072   -3.6845    0.3659 C   0  0
   17.3270   -4.7285    2.1546 C   0  0
   23.6602   -3.1240    0.9358 C   0  0
   23.8603   -1.7710    1.2130 C   0  0
   24.7819   -1.0241    0.4847 C   0  0
   25.5112   -1.6319   -0.5328 C   0  0
   25.3254   -2.9828   -0.8292 C   0  0
   24.3945   -3.7275   -0.0865 C   0  0
   26.0907   -3.4970   -1.8583 O   0  0
   25.9365   -4.8644   -2.2233 C   0  0
   20.2624   -2.4203    1.9829 H   0  0
   14.3519   -7.9652    0.5310 H   0  0
   14.2318   -6.2467    0.8550 H   0  0
   20.1369   -6.4574   -1.6134 H   0  0
   15.3997   -4.4419   -0.8501 H   0  0
   14.1793   -6.5677   -1.6310 H   0  0
   12.9515   -7.7959   -1.4786 H   0  0
   17.3171   -6.0277   -0.5392 H   0  0
   18.4995   -7.1430    0.1392 H   0  0
   17.8959   -7.3810   -1.4939 H   0  0
   10.5392   -6.9139   -0.5996 H   0  0
   10.4214   -5.1959   -0.3395 H   0  0
   10.8607   -3.2031    0.6519 H   0  0
   11.1910   -1.8355    1.6924 H   0  0
   11.3040   -1.6351   -0.0478 H   0  0
   12.0442   -5.3571    1.5919 H   0  0
   10.7389   -6.5074    1.8374 H   0  0
   15.6594   -2.2370    2.8172 H   0  0
   22.5030   -3.4945    2.7227 H   0  0
   23.0256   -4.9413    1.9058 H   0  0
   18.6456   -5.7386   -3.3932 H   0  0
   18.0953   -4.3578   -2.4588 H   0  0
   19.7640   -4.4368   -3.0155 H   0  0
   13.2886   -1.6562    2.6444 H   0  0
   18.3469   -5.1110    2.1349 H   0  0
   17.1602   -4.2897    3.1387 H   0  0
   16.6625   -5.5878    2.0557 H   0  0
   23.2963   -1.2898    1.9989 H   0  0
   24.9295    0.0225    0.7071 H   0  0
   26.2251   -1.0507   -1.0981 H   0  0
   24.2264   -4.7732   -0.2954 H   0  0
   26.6081   -5.0932   -3.0506 H   0  0
   26.1923   -5.5306   -1.3980 H   0  0
   24.9195   -5.0779   -2.5562 H   0  0
  1 22  1  0
  1 28  2  0
  1 38  1  0
  2  5  1  0
  2 17  1  0
  2 39  1  0
  2 40  1  0
  3 16  1  0
  3  7  1  0
  3 24  1  0
  3 41  1  0
  4 13  2  0
  4 26  1  0
  4 42  1  0
  5 27  1  0
  5 43  1  0
  5 44  1  0
  6 19  2  0
  7 45  1  0
  7 46  1  0
  7 47  1  0
  8 18  1  0
  8 27  1  0
  8 48  1  0
  8 49  1  0
  9 14  2  0
  9 12  1  0
  9 28  1  0
 10 20  1  0
 10 50  1  0
 10 51  1  0
 10 52  1  0
 11 19  2  0
 12 26  1  0
 12 29  1  0
 13 20  1  0
 13 19  1  0
 15 16  2  0
 15 22  1  0
 16 28  1  0
 17 18  1  0
 18 53  1  0
 18 54  1  0
 19 27  1  0
 20 25  2  0
 21 25  1  0
 21 26  2  0
 21 55  1  0
 22 23  1  0
 23 30  1  0
 23 56  1  0
 23 57  1  0
 24 58  1  0
 24 59  1  0
 24 60  1  0
 25 61  1  0
 29 62  1  0
 29 63  1  0
 29 64  1  0
 30 31  1  0
 30 35  2  0
 31 32  2  0
 31 65  1  0
 32 33  1  0
 32 66  1  0
 33 34  2  0
 33 67  1  0
 34 35  1  0
 34 36  1  0
 35 68  1  0
 36 37  1  0
 37 69  1  0
 37 70  1  0
 37 71  1  0
M  END
> <Name>
ligand_183

> <activity>
1

$$$$
ligand_184
  SciTegic10272118463D

 62 63  0  0  1  0            999 V2000
   13.8701   -9.4750    2.3029 C   0  0
   15.3914   -9.1834    2.2280 C   0  0
   13.5794   -9.9853    3.7442 C   0  0
    4.5779   -2.6296    0.8409 C   0  0
    4.1287   -3.9302    1.1024 C   0  0
    5.0265   -4.9804    1.3116 C   0  0
    6.4080   -4.7468    1.2497 C   0  0
    6.8599   -3.4504    0.9573 C   0  0
    5.9633   -2.4033    0.7432 C   0  0
    4.4794   -6.3726    1.6135 C   0  0
    4.3996   -6.6616    3.1190 C   0  0
    3.5519   -1.5670    0.5951 C   0  0
    3.7610   -0.2056    1.2733 C   0  0
    6.4880   -1.1768    0.4200 O   0  0
    7.2516   -5.8200    1.4785 O   0  0
    8.6632   -5.6316    1.4510 C   0  0
    9.3427   -6.9737    1.7586 C   0  0
   10.8792   -6.8834    1.7603 C   0  0
   11.5581   -8.2306    2.0643 C   0  0
   13.1014   -8.1364    2.0676 C   0  0
   13.5000  -10.5180    1.2178 C   0  0
   12.9933  -11.7068    1.4746 N   0  0
   12.8077  -12.3048    0.2513 N   0  0
   13.2251  -11.4230   -0.7089 N   0  0
   13.6648  -10.2889   -0.0694 N   0  5
    2.4710   -1.7844    0.0458 O   0  0
    3.8627    0.9580    0.2672 C   0  0
    4.0771    2.3133    0.9611 C   0  0
    4.1824    3.4816   -0.0285 C   0  0
   15.6788   -8.7702    1.2601 H   0  0
   15.7031   -8.4649    2.9875 H   0  0
   15.9791  -10.0903    2.3781 H   0  0
   12.5327  -10.2578    3.8805 H   0  0
   14.1705  -10.8713    3.9811 H   0  0
   13.8174   -9.2304    4.4948 H   0  0
    3.0677   -4.1351    1.1576 H   0  0
    7.9162   -3.2424    0.8845 H   0  0
    3.4910   -6.4836    1.1647 H   0  0
    5.0995   -7.1241    1.1226 H   0  0
    4.0025   -7.6602    3.3027 H   0  0
    5.3840   -6.6069    3.5854 H   0  0
    3.7489   -5.9479    3.6255 H   0  0
    2.9178   -0.0335    1.9428 H   0  0
    4.6453   -0.2366    1.9096 H   0  0
    7.4465   -1.1795    0.3780 H   0  0
    8.9586   -4.8880    2.1938 H   0  0
    8.9764   -5.2739    0.4683 H   0  0
    9.0222   -7.7141    1.0240 H   0  0
    8.9979   -7.3359    2.7284 H   0  0
   11.1982   -6.1434    2.4961 H   0  0
   11.2212   -6.5179    0.7905 H   0  0
   11.2346   -8.9655    1.3259 H   0  0
   11.2069   -8.5938    3.0302 H   0  0
   13.4039   -7.4083    2.8224 H   0  0
   13.4187   -7.7072    1.1152 H   0  0
    4.6846    0.7766   -0.4278 H   0  0
    2.9559    1.0034   -0.3391 H   0  0
    3.2560    2.5042    1.6535 H   0  0
    4.9844    2.2748    1.5658 H   0  0
    4.3341    4.4247    0.4973 H   0  0
    5.0205    3.3464   -0.7131 H   0  0
    3.2748    3.5782   -0.6253 H   0  0
  1  2  1  0
  1  3  1  0
  1 20  1  0
  1 21  1  0
  2 30  1  0
  2 31  1  0
  2 32  1  0
  3 33  1  0
  3 34  1  0
  3 35  1  0
  4  5  2  0
  4  9  1  0
  4 12  1  0
  5  6  1  0
  5 36  1  0
  6  7  2  0
  6 10  1  0
  7  8  1  0
  7 15  1  0
  8  9  2  0
  8 37  1  0
  9 14  1  0
 10 11  1  0
 10 38  1  0
 10 39  1  0
 11 40  1  0
 11 41  1  0
 11 42  1  0
 12 13  1  0
 12 26  2  0
 13 27  1  0
 13 43  1  0
 13 44  1  0
 14 45  1  0
 15 16  1  0
 16 17  1  0
 16 46  1  0
 16 47  1  0
 17 18  1  0
 17 48  1  0
 17 49  1  0
 18 19  1  0
 18 50  1  0
 18 51  1  0
 19 20  1  0
 19 52  1  0
 19 53  1  0
 20 54  1  0
 20 55  1  0
 21 22  2  0
 21 25  1  0
 22 23  1  0
 23 24  2  0
 24 25  1  0
 27 28  1  0
 27 56  1  0
 27 57  1  0
 28 29  1  0
 28 58  1  0
 28 59  1  0
 29 60  1  0
 29 61  1  0
 29 62  1  0
M  CHG  1  25  -1
M  END
> <Name>
ligand_184

> <activity>
1

$$$$
ligand_185
  SciTegic10272118463D

 56 57  0  0  1  0            999 V2000
   21.6248   -9.7129   -1.3439 C   0  0
   22.9065   -9.8715   -2.2025 C   0  0
   21.9752  -10.2170    0.0862 C   0  0
   15.2836   -0.3820    1.4888 C   0  0
   14.6826   -1.5136    2.0543 C   0  0
   15.2180   -2.7889    1.8703 C   0  0
   16.3749   -2.9574    1.0994 C   0  0
   16.9629   -1.8278    0.5094 C   0  0
   16.4283   -0.5388    0.6815 C   0  0
   14.5303   -3.9829    2.5264 C   0  0
   15.1480   -4.3470    3.8838 C   0  0
   14.6265    0.9450    1.7197 C   0  0
   13.4171    1.0830    1.9064 O   0  0
   15.5332    2.1512    1.9661 C   0  0
   16.9737    0.5817    0.0750 O   0  0
   16.8709   -4.2426    0.9624 O   0  0
   18.0587   -4.4708    0.2101 C   0  0
   18.3824   -5.9713    0.2494 C   0  0
   19.6582   -6.3318   -0.5326 C   0  0
   19.9790   -7.8365   -0.4944 C   0  0
   21.2622   -8.1955   -1.2788 C   0  0
   20.4754  -10.5240   -1.9944 C   0  0
   19.8537  -11.5279   -1.4100 N   0  0
   18.9113  -11.9586   -2.3128 N   0  0
   19.0158  -11.1723   -3.4283 N   0  0
   20.0218  -10.2634   -3.2040 N   0  5
   18.1309    0.4609   -0.7457 C   0  0
   22.7663   -9.4924   -3.2158 H   0  0
   23.7505   -9.3301   -1.7727 H   0  0
   23.2018  -10.9183   -2.2885 H   0  0
   21.1160  -10.1823    0.7564 H   0  0
   22.3231  -11.2510    0.0712 H   0  0
   22.7653   -9.6189    0.5423 H   0  0
   13.7912   -1.4094    2.6588 H   0  0
   17.8434   -1.9563   -0.0973 H   0  0
   13.4671   -3.7712    2.6511 H   0  0
   14.5712   -4.8428    1.8563 H   0  0
   14.6344   -5.1997    4.3285 H   0  0
   16.2009   -4.6126    3.7812 H   0  0
   15.0793   -3.5156    4.5862 H   0  0
   15.0199    2.8999    2.5699 H   0  0
   16.4343    1.8503    2.5007 H   0  0
   15.8235    2.6101    1.0213 H   0  0
   18.8885   -3.9019    0.6340 H   0  0
   17.9177   -4.1488   -0.8234 H   0  0
   17.5372   -6.5307   -0.1547 H   0  0
   18.4900   -6.2875    1.2881 H   0  0
   20.5024   -5.7717   -0.1272 H   0  0
   19.5488   -6.0124   -1.5703 H   0  0
   19.1312   -8.3905   -0.9000 H   0  0
   20.0797   -8.1505    0.5446 H   0  0
   22.0990   -7.6420   -0.8489 H   0  0
   21.1591   -7.8107   -2.2952 H   0  0
   18.4052    1.4454   -1.1245 H   0  0
   18.9830    0.0767   -0.1830 H   0  0
   17.9461   -0.1824   -1.6073 H   0  0
  1  2  1  0
  1  3  1  0
  1 21  1  0
  1 22  1  0
  2 28  1  0
  2 29  1  0
  2 30  1  0
  3 31  1  0
  3 32  1  0
  3 33  1  0
  4  5  2  0
  4  9  1  0
  4 12  1  0
  5  6  1  0
  5 34  1  0
  6  7  2  0
  6 10  1  0
  7  8  1  0
  7 16  1  0
  8  9  2  0
  8 35  1  0
  9 15  1  0
 10 11  1  0
 10 36  1  0
 10 37  1  0
 11 38  1  0
 11 39  1  0
 11 40  1  0
 12 13  2  0
 12 14  1  0
 14 41  1  0
 14 42  1  0
 14 43  1  0
 15 27  1  0
 16 17  1  0
 17 18  1  0
 17 44  1  0
 17 45  1  0
 18 19  1  0
 18 46  1  0
 18 47  1  0
 19 20  1  0
 19 48  1  0
 19 49  1  0
 20 21  1  0
 20 50  1  0
 20 51  1  0
 21 52  1  0
 21 53  1  0
 22 23  2  0
 22 26  1  0
 23 24  1  0
 24 25  2  0
 25 26  1  0
 27 54  1  0
 27 55  1  0
 27 56  1  0
M  CHG  1  26  -1
M  END
> <Name>
ligand_185

> <activity>
1

$$$$
ligand_186
  SciTegic10272118463D

 54 58  0  0  1  0            999 V2000
   -3.1243    6.4237    2.2654 O   0  5
   -2.0078    5.9603    2.5945 C   0  0
   -1.5055    6.0878    3.7350 O   0  0
   -1.2241    5.2059    1.5586 C   0  0
   -1.7333    5.0313    0.2621 C   0  0
   -1.0079    4.3313   -0.6981 C   0  0
    0.2344    3.7867   -0.3739 C   0  0
    1.0376    3.0349   -1.4264 C   0  0
    1.1548    1.5949   -1.1590 N   0  0
    2.3123    1.0580   -0.6966 C   0  0
    3.3738    1.6427   -0.4686 O   0  0
    2.0560   -0.4556   -0.4942 C   0  0
    2.2933   -0.8603    0.9907 C   0  0
    3.7832   -0.9275    1.3900 C   0  0
    4.5937   -1.7221    0.4304 N   0  0
    4.4399   -1.3519   -1.0008 C   0  0
    2.9611   -1.2978   -1.4401 C   0  0
    6.2356   -2.1401    0.9561 S   0  0
    6.1994   -2.5457    2.3661 O   0  0
    6.8669   -2.9767   -0.0712 O   0  0
    7.0411   -0.5204    0.8940 C   0  0
    7.0653    0.4096    1.9268 C   0  0
    7.7421    1.5831    1.5781 C   0  0
    8.2317    1.5509    0.2792 C   0  0
    7.8555    0.0608   -0.5256 S   0  0
    0.6064   -0.5879   -0.8674 C   0  0
   -0.2466   -1.6916   -0.8796 C   0  0
   -1.5740   -1.5237   -1.2747 C   0  0
   -2.7459   -3.0232   -1.2945 Br  0  0
   -2.0521   -0.2692   -1.6558 C   0  0
   -1.1976    0.8310   -1.6438 C   0  0
    0.1284    0.6526   -1.2454 C   0  0
    0.7593    3.9638    0.9065 C   0  0
    0.0336    4.6638    1.8664 C   0  0
   -2.6958    5.4386   -0.0142 H   0  0
   -1.4164    4.2140   -1.6912 H   0  0
    2.0218    3.5034   -1.4836 H   0  0
    0.5759    3.1717   -2.4050 H   0  0
    1.7597   -0.1927    1.6703 H   0  0
    1.8586   -1.8465    1.1621 H   0  0
    4.2175    0.0709    1.4443 H   0  0
    3.8907   -1.3681    2.3815 H   0  0
    4.9253   -0.3870   -1.1481 H   0  0
    4.9897   -2.0732   -1.6060 H   0  0
    2.5844   -2.3217   -1.4705 H   0  0
    2.8955   -0.9402   -2.4696 H   0  0
    6.6088    0.2446    2.8919 H   0  0
    7.8680    2.4231    2.2454 H   0  0
    8.7855    2.3221   -0.2354 H   0  0
    0.1054   -2.6701   -0.5876 H   0  0
   -3.0815   -0.1500   -1.9604 H   0  0
   -1.5728    1.7977   -1.9431 H   0  0
    1.7270    3.5560    1.1611 H   0  0
    0.4613    4.7810    2.8522 H   0  0
  1  2  1  0
  2  3  2  0
  2  4  1  0
  4  5  2  0
  4 34  1  0
  5  6  1  0
  5 35  1  0
  6  7  2  0
  6 36  1  0
  7  8  1  0
  7 33  1  0
  8  9  1  0
  8 37  1  0
  8 38  1  0
  9 10  1  0
  9 32  1  0
 10 11  2  0
 10 12  1  0
 12 13  1  0
 12 17  1  0
 12 26  1  0
 13 14  1  0
 13 39  1  0
 13 40  1  0
 14 15  1  0
 14 41  1  0
 14 42  1  0
 15 16  1  0
 15 18  1  0
 16 17  1  0
 16 43  1  0
 16 44  1  0
 17 45  1  0
 17 46  1  0
 18 19  2  0
 18 20  2  0
 18 21  1  0
 21 22  2  0
 21 25  1  0
 22 23  1  0
 22 47  1  0
 23 24  2  0
 23 48  1  0
 24 25  1  0
 24 49  1  0
 26 27  2  0
 26 32  1  0
 27 28  1  0
 27 50  1  0
 28 29  1  0
 28 30  2  0
 30 31  1  0
 30 51  1  0
 31 32  2  0
 31 52  1  0
 33 34  2  0
 33 53  1  0
 34 54  1  0
M  CHG  1   1  -1
M  END
> <Name>
ligand_186

> <activity>
1

$$$$
ligand_187
  SciTegic10272118463D

 66 70  0  0  1  0            999 V2000
   16.0126  -19.1002   -3.5961 C   0  0
   15.5724  -20.3372   -3.0943 C   0  0
   16.0068  -20.7747   -1.8283 C   0  0
   16.8740  -18.2707   -2.8798 C   0  0
   17.3065  -18.6969   -1.6199 C   0  0
   16.8731  -19.9411   -1.1083 C   0  0
   17.4855  -20.0409    0.1328 N   0  0
   18.2152  -18.8658    0.2906 C   0  0
   18.1354  -18.0622   -0.7406 N   0  0
   17.3418  -21.1775    1.0695 C   0  0  1  0  0  0
   18.7092  -21.8152    1.4218 C   0  0
   19.1724  -21.6746    2.6788 N   0  0
   19.3385  -22.4066    0.5437 O   0  0
   14.6388  -21.1925   -3.9058 C   0  0
   14.2626  -22.2827   -3.4160 O   0  5
   14.2815  -20.7728   -5.0308 O   0  0
   16.3812  -20.8491    2.2712 C   0  0
   20.4320  -22.2062    3.2025 C   0  0
   19.0337  -18.5083    1.4794 C   0  0
   18.4237  -18.0049    2.6304 C   0  0
   19.2001  -17.6653    3.7350 C   0  0
   20.5844  -17.8201    3.6806 C   0  0
   21.1986  -18.3110    2.5296 C   0  0
   20.4222  -18.6531    1.4259 C   0  0
   20.7999  -21.5809    4.5680 C   0  0
   22.1464  -22.0936    5.1155 C   0  0
   22.1835  -23.6309    5.1905 C   0  0
   21.8314  -24.2724    3.8358 C   0  0
   20.4873  -23.7543    3.2854 C   0  0
   15.1147  -20.0438    1.8580 C   0  0
   14.1838  -19.7381    3.0481 C   0  0
   13.7854  -21.0143    3.8089 C   0  0
   15.0224  -21.8220    4.2380 C   0  0
   15.9473  -22.1290    3.0440 C   0  0
   21.5460  -17.4096    5.0533 Cl  0  0
   15.6831  -18.7595   -4.5679 H   0  0
   15.6807  -21.7217   -1.4227 H   0  0
   17.1946  -17.3238   -3.2887 H   0  0
   16.8406  -21.9641    0.5044 H   0  0
   18.6025  -21.1654    3.3378 H   0  0
   16.9248  -20.2235    2.9788 H   0  0
   21.1971  -21.8822    2.4921 H   0  0
   17.3516  -17.8758    2.6686 H   0  0
   18.7294  -17.2815    4.6282 H   0  0
   22.2715  -18.4298    2.4924 H   0  0
   20.8964  -19.0355    0.5333 H   0  0
   20.8373  -20.4954    4.4852 H   0  0
   20.0116  -21.7973    5.2912 H   0  0
   22.9557  -21.7414    4.4738 H   0  0
   22.3339  -21.6676    6.1019 H   0  0
   23.1687  -23.9655    5.5177 H   0  0
   21.4778  -23.9743    5.9487 H   0  0
   22.6231  -24.0564    3.1166 H   0  0
   21.7996  -25.3581    3.9350 H   0  0
   19.6747  -24.1114    3.9202 H   0  0
   20.3132  -24.1942    2.3028 H   0  0
   15.3934  -19.0967    1.3952 H   0  0
   14.5609  -20.5994    1.0993 H   0  0
   14.6854  -19.0507    3.7312 H   0  0
   13.2902  -19.2200    2.6979 H   0  0
   13.1847  -20.7572    4.6821 H   0  0
   13.1503  -21.6329    3.1727 H   0  0
   15.5782  -21.2630    4.9925 H   0  0
   14.7108  -22.7514    4.7164 H   0  0
   15.4329  -22.8077    2.3615 H   0  0
   16.8127  -22.6799    3.4115 H   0  0
  1  2  2  0
  1  4  1  0
  1 36  1  0
  2  3  1  0
  2 14  1  0
  3  6  2  0
  3 37  1  0
  4  5  2  0
  4 38  1  0
  5  6  1  0
  5  9  1  0
  6  7  1  0
  7  8  1  0
  7 10  1  0
  8  9  2  0
  8 19  1  0
 10 11  1  0
 10 17  1  0
 10 39  1  0
 11 12  1  0
 11 13  2  0
 12 18  1  0
 12 40  1  0
 14 15  1  0
 14 16  2  0
 17 30  1  0
 17 34  1  0
 17 41  1  0
 18 25  1  0
 18 29  1  0
 18 42  1  0
 19 20  2  0
 19 24  1  0
 20 21  1  0
 20 43  1  0
 21 22  2  0
 21 44  1  0
 22 23  1  0
 22 35  1  0
 23 24  2  0
 23 45  1  0
 24 46  1  0
 25 26  1  0
 25 47  1  0
 25 48  1  0
 26 27  1  0
 26 49  1  0
 26 50  1  0
 27 28  1  0
 27 51  1  0
 27 52  1  0
 28 29  1  0
 28 53  1  0
 28 54  1  0
 29 55  1  0
 29 56  1  0
 30 31  1  0
 30 57  1  0
 30 58  1  0
 31 32  1  0
 31 59  1  0
 31 60  1  0
 32 33  1  0
 32 61  1  0
 32 62  1  0
 33 34  1  0
 33 63  1  0
 33 64  1  0
 34 65  1  0
 34 66  1  0
M  CHG  1  15  -1
M  END
> <Name>
ligand_187

> <activity>
1

$$$$
ligand_188
  SciTegic10272118463D

 59 60  0  0  1  0            999 V2000
   40.3716  -21.3595    3.5262 C   0  0
   41.2046  -21.5152    4.8250 C   0  0
   39.7057  -22.7387    3.2497 C   0  0
   31.3525  -14.5160    0.8557 C   0  0
   31.6559  -15.3063   -0.2607 C   0  0
   32.7306  -16.1994   -0.2516 C   0  0
   33.5411  -16.3099    0.8878 C   0  0
   33.2566  -15.5003    1.9984 C   0  0
   32.1852  -14.6069    1.9871 C   0  0
   32.9952  -17.0448   -1.4982 C   0  0
   32.1475  -18.3379   -1.5764 C   0  0
   30.1965  -13.5671    0.7514 C   0  0
   29.3196  -13.3767    1.9888 C   0  0
   32.0035  -13.8277    3.1024 O   0  0
   34.5853  -17.2170    0.8494 O   0  0
   35.3819  -17.4337    2.0097 C   0  0
   36.4030  -18.5376    1.6997 C   0  0
   37.3180  -18.8631    2.8938 C   0  0
   38.3426  -19.9675    2.5795 C   0  0
   39.2589  -20.2941    3.7813 C   0  0
   41.3071  -20.9104    2.3749 C   0  0
   41.5204  -21.6085    1.2781 N   0  0
   42.3952  -20.8621    0.5257 N   0  0
   42.6751  -19.7201    1.2266 N   0  0
   41.9706  -19.7722    2.4053 N   0  5
   29.8100  -13.0801   -0.3114 O   0  0
   32.3240  -19.0284   -2.9410 C   0  0
   32.4457  -19.3215   -0.4271 C   0  0
   41.6700  -20.5751    5.1244 H   0  0
   40.5894  -21.8482    5.6622 H   0  0
   42.0056  -22.2454    4.6998 H   0  0
   39.1276  -22.7383    2.3254 H   0  0
   40.4505  -23.5305    3.1567 H   0  0
   39.0284  -23.0279    4.0545 H   0  0
   31.0456  -15.2425   -1.1519 H   0  0
   33.8721  -15.5503    2.8832 H   0  0
   32.7934  -16.4225   -2.3720 H   0  0
   34.0573  -17.2837   -1.5730 H   0  0
   31.0967  -18.0527   -1.4991 H   0  0
   28.3151  -13.0641    1.7030 H   0  0
   29.2350  -14.3107    2.5445 H   0  0
   29.7446  -12.6170    2.6442 H   0  0
   32.6565  -13.9946    3.7852 H   0  0
   34.7524  -17.7376    2.8484 H   0  0
   35.8998  -16.5141    2.2880 H   0  0
   37.0115  -18.2335    0.8466 H   0  0
   35.8723  -19.4396    1.3907 H   0  0
   36.7079  -19.1677    3.7457 H   0  0
   37.8453  -17.9589    3.2025 H   0  0
   38.9484  -19.6572    1.7269 H   0  0
   37.8100  -20.8650    2.2647 H   0  0
   38.6349  -20.6161    4.6171 H   0  0
   39.7258  -19.3658    4.1161 H   0  0
   31.6887  -19.9111   -3.0237 H   0  0
   32.0575  -18.3605   -3.7609 H   0  0
   33.3554  -19.3477   -3.0961 H   0  0
   31.8422  -20.2258   -0.5133 H   0  0
   33.4941  -19.6224   -0.4221 H   0  0
   32.2231  -18.8818    0.5453 H   0  0
  1  2  1  0
  1  3  1  0
  1 20  1  0
  1 21  1  0
  2 29  1  0
  2 30  1  0
  2 31  1  0
  3 32  1  0
  3 33  1  0
  3 34  1  0
  4  5  2  0
  4  9  1  0
  4 12  1  0
  5  6  1  0
  5 35  1  0
  6  7  2  0
  6 10  1  0
  7  8  1  0
  7 15  1  0
  8  9  2  0
  8 36  1  0
  9 14  1  0
 10 11  1  0
 10 37  1  0
 10 38  1  0
 11 27  1  0
 11 28  1  0
 11 39  1  0
 12 13  1  0
 12 26  2  0
 13 40  1  0
 13 41  1  0
 13 42  1  0
 14 43  1  0
 15 16  1  0
 16 17  1  0
 16 44  1  0
 16 45  1  0
 17 18  1  0
 17 46  1  0
 17 47  1  0
 18 19  1  0
 18 48  1  0
 18 49  1  0
 19 20  1  0
 19 50  1  0
 19 51  1  0
 20 52  1  0
 20 53  1  0
 21 22  2  0
 21 25  1  0
 22 23  1  0
 23 24  2  0
 24 25  1  0
 27 54  1  0
 27 55  1  0
 27 56  1  0
 28 57  1  0
 28 58  1  0
 28 59  1  0
M  CHG  1  25  -1
M  END
> <Name>
ligand_188

> <activity>
1

$$$$
ligand_189
  SciTegic10272118463D

 51 54  0  0  1  0            999 V2000
    4.4136   -0.5203    1.1784 C   0  0
    8.0687    5.4541    3.1814 C   0  0
    9.1406    6.2011    3.3233 N   0  0
    5.7128   -0.1342    1.6354 C   0  0
    6.5956    6.3641    2.9913 S   0  0
    4.3134   -1.8248    0.6156 C   0  0
    3.2454    0.2839    1.2451 C   0  0
    6.7836   -0.9608    1.5317 N   0  0
    3.0653   -2.2767    0.1442 C   0  0
    5.9086    1.1454    2.1916 N   0  0
    8.8749    7.4941    3.2857 C   0  0
    2.0059   -0.1803    0.7701 C   0  0
    1.9232   -1.4791    0.2149 C   0  0
    8.0823    3.9524    3.1956 C   0  0
    7.5337    7.8201    3.1097 C   0  0
    5.3898   -2.6537    0.5171 N   0  0
    6.5674   -2.1755    0.9810 C   0  0
    7.0339    1.8173    2.7033 C   0  0
    7.0067    3.2114    2.6961 C   0  0
    0.8661    0.6029    0.8311 O   0  0
    0.7941   -2.0984   -0.2982 O   0  0
    9.1895    3.2681    3.7066 C   0  0
    9.2249    1.8801    3.7333 C   0  0
   10.0510    8.4302    3.4382 C   0  0
    8.1464    1.1600    3.2362 C   0  0
   -0.4828   -1.4720   -0.2914 C   0  0
    0.9083    1.9151    1.3850 C   0  0
   -1.5007   -2.4410   -0.8994 C   0  0
   -0.4976    2.5170    1.3110 C   0  0
    3.3361    1.2687    1.6750 H   0  0
    2.9997   -3.2682   -0.2811 H   0  0
    5.1075    1.7455    2.0711 H   0  0
    7.0755    8.7958    3.0484 H   0  0
    7.4225   -2.8312    0.9017 H   0  0
    6.1446    3.7182    2.2874 H   0  0
   10.0352    3.8147    4.0987 H   0  0
   10.0813    1.3646    4.1424 H   0  0
    9.7460    9.4760    3.3963 H   0  0
   10.5619    8.2868    4.3909 H   0  0
   10.7902    8.2836    2.6499 H   0  0
    8.1888    0.0838    3.2911 H   0  0
   -0.7853   -1.2269    0.7280 H   0  0
   -0.4633   -0.5548   -0.8822 H   0  0
    1.2373    1.8807    2.4251 H   0  0
    1.6051    2.5433    0.8274 H   0  0
   -2.4979   -2.0007   -0.9146 H   0  0
   -1.2341   -2.6981   -1.9250 H   0  0
   -1.5535   -3.3664   -0.3251 H   0  0
   -0.5135    3.5250    1.7257 H   0  0
   -0.8456    2.5750    0.2792 H   0  0
   -1.2125    1.9140    1.8716 H   0  0
  1  4  1  0
  1  6  1  0
  1  7  2  0
  2  3  2  0
  2  5  1  0
  2 14  1  0
  3 11  1  0
  4  8  2  0
  4 10  1  0
  5 15  1  0
  6  9  2  0
  6 16  1  0
  7 12  1  0
  7 30  1  0
  8 17  1  0
  9 13  1  0
  9 31  1  0
 10 18  1  0
 10 32  1  0
 11 15  2  0
 11 24  1  0
 12 13  2  0
 12 20  1  0
 13 21  1  0
 14 19  1  0
 14 22  2  0
 15 33  1  0
 16 17  2  0
 17 34  1  0
 18 19  2  0
 18 25  1  0
 19 35  1  0
 20 27  1  0
 21 26  1  0
 22 23  1  0
 22 36  1  0
 23 25  2  0
 23 37  1  0
 24 38  1  0
 24 39  1  0
 24 40  1  0
 25 41  1  0
 26 28  1  0
 26 42  1  0
 26 43  1  0
 27 29  1  0
 27 44  1  0
 27 45  1  0
 28 46  1  0
 28 47  1  0
 28 48  1  0
 29 49  1  0
 29 50  1  0
 29 51  1  0
M  END
> <Name>
ligand_189

> <activity>
1

$$$$
ligand_190
  SciTegic10272118463D

 65 66  0  0  1  0            999 V2000
   17.1061   -2.4750    2.5731 C   0  0
   18.2928   -2.6720    1.6034 C   0  0  2  0  0  0
   17.8510   -2.9883    0.2022 C   0  0
   18.3689   -4.1636   -0.1726 C   0  0
   19.1314   -4.6881    0.9545 C   0  0
   19.0632   -3.8019    1.9614 O   0  0
   19.7419   -5.7545    1.0135 O   0  0
   18.2408   -4.9650   -1.4601 C   0  0
   19.5234   -5.0063   -2.3102 C   0  0
   19.3647   -5.8026   -3.5957 C   0  0
   19.1934   -5.3243   -4.8470 C   0  0
   19.0811   -3.8481   -5.2018 C   0  0
   19.0759   -6.2597   -6.0384 C   0  0
   24.5821    1.9546    9.1265 C   0  0
   24.5143    3.2826    9.4000 C   0  0
   23.2802    4.0166    9.6969 C   0  0
   22.1011    3.1458    9.6559 C   0  0
   22.1213    1.8157    9.3800 C   0  0
   23.3835    1.0732    9.0969 C   0  0
   23.2384    5.2187    9.9490 O   0  0
   23.4316   -0.1375    8.8660 O   0  0
   25.9028    1.2536    8.8261 C   0  0
   20.8403    0.9781    9.3626 C   0  0
   20.4033    0.5255    7.9751 C   0  0
   19.4390    1.0648    7.1979 C   0  0
   19.1102    0.4760    5.8302 C   0  0
   18.6294    2.3003    7.5735 C   0  0
   17.7214   -0.1819    5.7466 C   0  0
   17.4190   -0.7698    4.3770 C   0  0
   17.4936   -2.0629    3.9915 C   0  0
   17.9307   -3.2074    4.9003 C   0  0
   16.4505   -1.7081    2.1563 H   0  0
   16.4967   -3.3794    2.6198 H   0  0
   18.9310   -1.7872    1.6119 H   0  0
   17.2134   -2.3384   -0.3790 H   0  0
   17.9191   -5.9792   -1.2160 H   0  0
   17.4330   -4.5285   -2.0498 H   0  0
   19.8610   -3.9923   -2.5206 H   0  0
   20.3330   -5.4662   -1.7421 H   0  0
   19.4112   -6.8738   -3.4583 H   0  0
   19.9486   -3.5358   -5.7835 H   0  0
   18.1896   -3.6748   -5.8053 H   0  0
   19.0065   -3.1971   -4.3327 H   0  0
   18.1155   -6.1224   -6.5362 H   0  0
   19.8679   -6.0550   -6.7593 H   0  0
   19.1530   -7.3081   -5.7466 H   0  0
   25.4395    3.8407    9.3991 H   0  0
   21.1409    3.5994    9.8550 H   0  0
   25.8871    0.8063    7.8311 H   0  0
   26.7434    1.9478    8.8609 H   0  0
   26.0980    0.4647    9.5542 H   0  0
   20.0369    1.5352    9.8439 H   0  0
   20.9653    0.0929    9.9888 H   0  0
   20.9387   -0.3371    7.6038 H   0  0
   19.8655   -0.2642    5.5589 H   0  0
   19.1922    1.2681    5.0842 H   0  0
   19.0404    2.8410    8.4242 H   0  0
   18.6014    3.0014    6.7388 H   0  0
   17.6040    2.0214    7.8160 H   0  0
   16.9454    0.5543    5.9591 H   0  0
   17.6216   -0.9346    6.5269 H   0  0
   17.1001   -0.0377    3.6485 H   0  0
   18.1789   -2.8934    5.9116 H   0  0
   17.1377   -3.9520    4.9737 H   0  0
   18.8175   -3.6978    4.5015 H   0  0
  1  2  1  0
  1 30  1  0
  1 32  1  0
  1 33  1  0
  2  3  1  0
  2  6  1  0
  2 34  1  0
  3  4  2  0
  3 35  1  0
  4  5  1  0
  4  8  1  0
  5  6  1  0
  5  7  2  0
  8  9  1  0
  8 36  1  0
  8 37  1  0
  9 10  1  0
  9 38  1  0
  9 39  1  0
 10 11  2  0
 10 40  1  0
 11 12  1  0
 11 13  1  0
 12 41  1  0
 12 42  1  0
 12 43  1  0
 13 44  1  0
 13 45  1  0
 13 46  1  0
 14 15  2  0
 14 19  1  0
 14 22  1  0
 15 16  1  0
 15 47  1  0
 16 17  1  0
 16 20  2  0
 17 18  2  0
 17 48  1  0
 18 19  1  0
 18 23  1  0
 19 21  2  0
 22 49  1  0
 22 50  1  0
 22 51  1  0
 23 24  1  0
 23 52  1  0
 23 53  1  0
 24 25  2  0
 24 54  1  0
 25 26  1  0
 25 27  1  0
 26 28  1  0
 26 55  1  0
 26 56  1  0
 27 57  1  0
 27 58  1  0
 27 59  1  0
 28 29  1  0
 28 60  1  0
 28 61  1  0
 29 30  2  0
 29 62  1  0
 30 31  1  0
 31 63  1  0
 31 64  1  0
 31 65  1  0
M  END
> <Name>
ligand_190

> <activity>
1

$$$$
ligand_191
  SciTegic10272118463D

 68 72  0  0  1  0            999 V2000
   25.0502  -18.8690   -3.7865 C   0  0
   24.6456  -20.1283   -3.3318 C   0  0
   24.9738  -20.5772   -2.0461 C   0  0
   25.7949  -18.0075   -2.9820 C   0  0
   26.1330  -18.4349   -1.6915 C   0  0
   25.7225  -19.7114   -1.2371 C   0  0
   26.2220  -19.7994    0.0542 N   0  0
   26.8723  -18.5916    0.2921 C   0  0
   26.8427  -17.7741   -0.7310 N   0  0
   26.0535  -20.9568    0.9606 C   0  0  1  0  0  0
   27.4158  -21.5423    1.4089 C   0  0
   27.7738  -21.4060    2.7003 N   0  0
   28.1366  -22.0889    0.5731 O   0  0
   23.8343  -21.0262   -4.2533 C   0  0
   22.4812  -20.6313   -4.3427 O   0  0
   24.9894  -20.6887    2.0877 C   0  0
   29.0112  -21.8935    3.3124 C   0  0
   27.5634  -18.2154    1.5538 C   0  0
   28.9556  -18.3061    1.6269 C   0  0
   29.6137  -17.9468    2.7998 C   0  0
   28.8779  -17.4933    3.8934 C   0  0
   27.4895  -17.3918    3.8214 C   0  0
   26.8313  -17.7480    2.6475 C   0  0
   29.2466  -21.2764    4.7107 C   0  0
   30.5678  -21.7425    5.3535 C   0  0
   30.6642  -23.2780    5.4102 C   0  0
   30.4446  -23.9104    4.0236 C   0  0
   29.1258  -23.4392    3.3781 C   0  0
   23.7248  -19.9322    1.5861 C   0  0
   22.6916  -19.6851    2.7030 C   0  0
   22.2914  -20.9888    3.4147 C   0  0
   23.5255  -21.7494    3.9298 C   0  0
   24.5533  -21.9980    2.8086 C   0  0
   29.6929  -17.0624    5.3520 Cl  0  0
   24.7794  -18.5496   -4.7827 H   0  0
   24.6555  -21.5494   -1.6999 H   0  0
   26.0988  -17.0370   -3.3455 H   0  0
   25.6301  -21.7532    0.3474 H   0  0
   27.1316  -20.9370    3.3216 H   0  0
   24.2716  -21.0103   -5.2526 H   0  0
   23.8759  -22.0622   -3.9134 H   0  0
   22.0195  -21.2456   -4.9182 H   0  0
   25.4484  -20.0518    2.8435 H   0  0
   29.8141  -21.5262    2.6677 H   0  0
   29.5247  -18.6602    0.7793 H   0  0
   30.6893  -18.0238    2.8605 H   0  0
   26.9244  -17.0363    4.6706 H   0  0
   25.7559  -17.6606    2.5885 H   0  0
   29.2443  -20.1890    4.6459 H   0  0
   28.4152  -21.5372    5.3678 H   0  0
   31.4083  -21.3464    4.7813 H   0  0
   30.6609  -21.3259    6.3573 H   0  0
   31.6347  -23.5772    5.8081 H   0  0
   29.9176  -23.6630    6.1067 H   0  0
   31.2793  -23.6498    3.3708 H   0  0
   30.4516  -24.9981    4.1051 H   0  0
   28.2830  -23.8403    3.9433 H   0  0
   29.0464  -23.8691    2.3790 H   0  0
   23.9965  -18.9670    1.1578 H   0  0
   23.2567  -20.4995    0.7798 H   0  0
   23.1077  -18.9874    3.4316 H   0  0
   21.8060  -19.2003    2.2901 H   0  0
   21.6138  -20.7713    4.2413 H   0  0
   21.7354  -21.6241    2.7234 H   0  0
   23.9957  -21.1790    4.7325 H   0  0
   23.2188  -22.6987    4.3710 H   0  0
   24.1242  -22.6875    2.0796 H   0  0
   25.4108  -22.5168    3.2364 H   0  0
  1  2  2  0
  1  4  1  0
  1 35  1  0
  2  3  1  0
  2 14  1  0
  3  6  2  0
  3 36  1  0
  4  5  2  0
  4 37  1  0
  5  6  1  0
  5  9  1  0
  6  7  1  0
  7  8  1  0
  7 10  1  0
  8  9  2  0
  8 18  1  0
 10 11  1  0
 10 16  1  0
 10 38  1  0
 11 12  1  0
 11 13  2  0
 12 17  1  0
 12 39  1  0
 14 15  1  0
 14 40  1  0
 14 41  1  0
 15 42  1  0
 16 29  1  0
 16 33  1  0
 16 43  1  0
 17 24  1  0
 17 28  1  0
 17 44  1  0
 18 19  2  0
 18 23  1  0
 19 20  1  0
 19 45  1  0
 20 21  2  0
 20 46  1  0
 21 22  1  0
 21 34  1  0
 22 23  2  0
 22 47  1  0
 23 48  1  0
 24 25  1  0
 24 49  1  0
 24 50  1  0
 25 26  1  0
 25 51  1  0
 25 52  1  0
 26 27  1  0
 26 53  1  0
 26 54  1  0
 27 28  1  0
 27 55  1  0
 27 56  1  0
 28 57  1  0
 28 58  1  0
 29 30  1  0
 29 59  1  0
 29 60  1  0
 30 31  1  0
 30 61  1  0
 30 62  1  0
 31 32  1  0
 31 63  1  0
 31 64  1  0
 32 33  1  0
 32 65  1  0
 32 66  1  0
 33 67  1  0
 33 68  1  0
M  END
> <Name>
ligand_191

> <activity>
1

$$$$
ligand_192
  SciTegic10272118463D

 69 74  0  0  1  0            999 V2000
    1.2821    1.3790    2.2254 O   0  0
    1.2679    1.8537    1.0914 C   0  0
    0.3083    2.6919    0.6555 N   0  0
   -0.8704    3.2138    1.3601 C   0  0
   -0.6173    4.0800    2.6250 C   0  0
   -0.6004    3.2958    3.9561 C   0  0
   -1.8033    2.3428    4.0951 C   0  0
   -1.9549    1.4156    2.8747 C   0  0
   -2.0390    2.2182    1.5624 C   0  0
    2.4093    1.4685    0.1094 C   0  0  2  0  0  0
    2.3468    2.0879   -1.3400 C   0  0
    3.2383    1.3722   -2.3980 C   0  0
    3.1370    2.0106   -3.7977 C   0  0
    3.4480    3.5168   -3.7665 C   0  0
    2.5764    4.2498   -2.7321 C   0  0
    2.6863    3.6076   -1.3352 C   0  0
    2.6743    0.0092    0.0955 N   0  0
    3.9377   -0.5729    0.2805 C   0  0
    5.2044   -0.0132    0.4988 C   0  0
    6.2795   -0.8897    0.6498 C   0  0
    6.1094   -2.2700    0.5884 C   0  0
    4.8557   -2.8407    0.3712 C   0  0
    3.7769   -1.9668    0.2175 C   0  0
    2.4338   -2.2043   -0.0099 N   0  3
    1.7579   -1.0160   -0.1053 C   0  0
    0.2952   -0.9241   -0.3531 C   0  0
   -0.5891   -1.4181    0.6059 C   0  0
   -1.9618   -1.3418    0.3914 C   0  0
   -2.4717   -0.7716   -0.7841 C   0  0
   -1.5703   -0.2924   -1.7459 C   0  0
   -0.1969   -0.3715   -1.5349 C   0  0
   -3.9602   -0.6632   -1.0019 C   0  0
   -4.8422   -1.3755   -0.3327 N   0  0
   -6.0711   -0.9851   -0.8089 N   0  0
   -5.8602   -0.0299   -1.7671 N   0  0
   -4.5031    0.1607   -1.8735 N   0  5
    0.3826    2.9899   -0.3058 H   0  0
   -1.2235    3.9176    0.6041 H   0  0
    0.3034    4.6549    2.5156 H   0  0
   -1.4147    4.8221    2.6915 H   0  0
    0.3251    2.7312    4.0501 H   0  0
   -0.5916    3.9968    4.7916 H   0  0
   -1.7033    1.7484    5.0041 H   0  0
   -2.7153    2.9296    4.2157 H   0  0
   -1.1202    0.7168    2.8332 H   0  0
   -2.8492    0.8011    2.9861 H   0  0
   -2.9759    2.7778    1.5685 H   0  0
   -2.1125    1.5461    0.7089 H   0  0
    3.2817    1.9132    0.5882 H   0  0
    1.3223    1.9938   -1.7012 H   0  0
    4.2790    1.3886   -2.0705 H   0  0
    2.9642    0.3206   -2.4873 H   0  0
    3.8147    1.5056   -4.4873 H   0  0
    2.1317    1.8563   -4.1932 H   0  0
    4.5016    3.6650   -3.5241 H   0  0
    3.2992    3.9505   -4.7562 H   0  0
    2.8643    5.3007   -2.6829 H   0  0
    1.5349    4.2350   -3.0574 H   0  0
    2.0412    4.1565   -0.6502 H   0  0
    3.7009    3.7505   -0.9594 H   0  0
    5.3621    1.0539    0.5488 H   0  0
    7.2683   -0.4883    0.8189 H   0  0
    6.9690   -2.9129    0.7113 H   0  0
    4.7350   -3.9132    0.3241 H   0  0
   -0.2176   -1.8499    1.5243 H   0  0
   -2.6299   -1.7164    1.1533 H   0  0
   -1.9322    0.1434   -2.6659 H   0  0
    0.4780   -0.0119   -2.2970 H   0  0
    1.9713   -3.0961   -0.1112 H   0  0
  1  2  2  0
  2  3  1  0
  2 10  1  0
  3  4  1  0
  3 37  1  0
  4  5  1  0
  4  9  1  0
  4 38  1  0
  5  6  1  0
  5 39  1  0
  5 40  1  0
  6  7  1  0
  6 41  1  0
  6 42  1  0
  7  8  1  0
  7 43  1  0
  7 44  1  0
  8  9  1  0
  8 45  1  0
  8 46  1  0
  9 47  1  0
  9 48  1  0
 10 11  1  0
 10 17  1  0
 10 49  1  0
 11 12  1  0
 11 16  1  0
 11 50  1  0
 12 13  1  0
 12 51  1  0
 12 52  1  0
 13 14  1  0
 13 53  1  0
 13 54  1  0
 14 15  1  0
 14 55  1  0
 14 56  1  0
 15 16  1  0
 15 57  1  0
 15 58  1  0
 16 59  1  0
 16 60  1  0
 17 18  1  0
 17 25  1  0
 18 19  2  0
 18 23  1  0
 19 20  1  0
 19 61  1  0
 20 21  2  0
 20 62  1  0
 21 22  1  0
 21 63  1  0
 22 23  2  0
 22 64  1  0
 23 24  1  0
 24 25  2  0
 24 69  1  0
 25 26  1  0
 26 27  2  0
 26 31  1  0
 27 28  1  0
 27 65  1  0
 28 29  2  0
 28 66  1  0
 29 30  1  0
 29 32  1  0
 30 31  2  0
 30 67  1  0
 31 68  1  0
 32 33  2  0
 32 36  1  0
 33 34  1  0
 34 35  2  0
 35 36  1  0
M  CHG  2  24   1  36  -1
M  END
> <Name>
ligand_192

> <activity>
1

$$$$
ligand_193
  SciTegic10272118463D

 72 75  0  0  1  0            999 V2000
    1.2425   -0.8867    1.2553 C   0  0
    1.6076    0.0006    2.0265 O   0  0
   -0.0286   -1.6239    1.6099 C   0  0
   -1.1305   -1.6085    0.7457 C   0  0
   -2.2959   -2.2889    1.0882 C   0  0
   -2.3659   -2.9752    2.2987 C   0  0
   -1.2804   -2.9819    3.1723 C   0  0
   -0.1140   -2.3023    2.8309 C   0  0
   -3.8106   -3.8189    2.7220 Cl  0  0
    1.9401   -1.2377    0.1240 N   0  0
    3.1687   -0.5218   -0.3353 C   0  0  1  0  0  0
    3.1234    1.0555   -0.3375 C   0  0
    3.5148    1.6339   -1.7225 C   0  0
    3.3607    3.1674   -1.7882 C   0  0
    4.1346    3.8747   -0.6600 C   0  0
    3.7644    3.3108    0.7244 C   0  0
    3.9374    1.7806    0.7778 C   0  0
    4.4625   -1.1376    0.2447 C   0  0
    4.4657   -1.5674    1.3960 O   0  0
    5.5161   -1.1404   -0.5884 N   0  0
    6.8705   -1.6485   -0.3438 C   0  0
    7.0155   -3.1867   -0.1921 C   0  0
    6.9094   -3.6977    1.2597 C   0  0
    7.8399   -2.9254    2.2136 C   0  0
    7.6165   -1.4034    2.1376 C   0  0
    7.7257   -0.8719    0.6932 C   0  0
    1.6367   -2.4435   -0.5445 C   0  0
    2.1055   -3.6605   -0.0451 C   0  0
    1.8091   -4.8465   -0.7138 C   0  0
    1.0626   -4.7992   -1.9004 C   0  0
    0.6051   -3.5862   -2.4040 C   0  0
    0.8948   -2.4092   -1.7255 C   0  0
    2.3264   -6.0255   -0.1461 N   0  0
    1.9539   -7.3048   -0.3598 C   0  0
    1.0411   -7.6684   -1.1000 O   0  0
    2.7385   -8.3599    0.4134 C   0  0
   -1.0916   -1.0706   -0.1907 H   0  0
   -3.1424   -2.2806    0.4173 H   0  0
   -1.3411   -3.5108    4.1121 H   0  0
    0.7229   -2.3123    3.5153 H   0  0
    3.2187   -0.7901   -1.3921 H   0  0
    2.0784    1.3308   -0.1860 H   0  0
    4.5468    1.3653   -1.9540 H   0  0
    2.9013    1.1832   -2.5041 H   0  0
    3.6987    3.5348   -2.7579 H   0  0
    2.3032    3.4269   -1.7176 H   0  0
    5.2063    3.7531   -0.8252 H   0  0
    3.9418    4.9478   -0.6903 H   0  0
    4.3775    3.7821    1.4936 H   0  0
    2.7303    3.5677    0.9596 H   0  0
    3.6551    1.4213    1.7664 H   0  0
    4.9993    1.5531    0.6732 H   0  0
    5.3717   -0.7462   -1.5065 H   0  0
    7.3184   -1.4155   -1.3115 H   0  0
    6.2911   -3.7020   -0.8247 H   0  0
    7.9946   -3.4777   -0.5763 H   0  0
    5.8807   -3.6255    1.6095 H   0  0
    7.1523   -4.7605    1.2917 H   0  0
    7.6931   -3.2718    3.2373 H   0  0
    8.8781   -3.1497    1.9637 H   0  0
    6.6439   -1.1523    2.5579 H   0  0
    8.3448   -0.8943    2.7701 H   0  0
    8.7725   -0.9397    0.3926 H   0  0
    7.4846    0.1917    0.6657 H   0  0
    2.6901   -3.6767    0.8647 H   0  0
    0.8376   -5.6921   -2.4621 H   0  0
    0.0342   -3.5593   -3.3204 H   0  0
    0.5435   -1.4671   -2.1215 H   0  0
    3.0534   -5.8787    0.5379 H   0  0
    2.0673   -8.9275    1.0581 H   0  0
    3.2147   -9.0539   -0.2795 H   0  0
    3.5146   -7.9142    1.0368 H   0  0
  1  2  2  0
  1  3  1  0
  1 10  1  0
  3  4  2  0
  3  8  1  0
  4  5  1  0
  4 37  1  0
  5  6  2  0
  5 38  1  0
  6  7  1  0
  6  9  1  0
  7  8  2  0
  7 39  1  0
  8 40  1  0
 10 11  1  0
 10 27  1  0
 11 12  1  0
 11 18  1  0
 11 41  1  0
 12 13  1  0
 12 17  1  0
 12 42  1  0
 13 14  1  0
 13 43  1  0
 13 44  1  0
 14 15  1  0
 14 45  1  0
 14 46  1  0
 15 16  1  0
 15 47  1  0
 15 48  1  0
 16 17  1  0
 16 49  1  0
 16 50  1  0
 17 51  1  0
 17 52  1  0
 18 19  2  0
 18 20  1  0
 20 21  1  0
 20 53  1  0
 21 22  1  0
 21 26  1  0
 21 54  1  0
 22 23  1  0
 22 55  1  0
 22 56  1  0
 23 24  1  0
 23 57  1  0
 23 58  1  0
 24 25  1  0
 24 59  1  0
 24 60  1  0
 25 26  1  0
 25 61  1  0
 25 62  1  0
 26 63  1  0
 26 64  1  0
 27 28  2  0
 27 32  1  0
 28 29  1  0
 28 65  1  0
 29 30  2  0
 29 33  1  0
 30 31  1  0
 30 66  1  0
 31 32  2  0
 31 67  1  0
 32 68  1  0
 33 34  1  0
 33 69  1  0
 34 35  2  0
 34 36  1  0
 36 70  1  0
 36 71  1  0
 36 72  1  0
M  END
> <Name>
ligand_193

> <activity>
1

$$$$
ligand_194
  SciTegic10272118463D

 59 61  0  0  1  0            999 V2000
    0.0936    0.4246    1.0263 C   0  0
   -0.2149    1.6452    1.6233 C   0  0
   -1.5218    2.1177    1.5827 C   0  0
   -2.5241    1.3851    0.9440 C   0  0
   -2.2374    0.1454    0.3244 C   0  0
   -0.9081   -0.3143    0.3882 C   0  0
   -3.7811    1.9306    0.9499 O   0  0
    1.4184   -0.0464    1.0397 N   0  0
    1.7719   -1.0321    1.9171 C   0  0
    1.0222   -1.4798    2.7889 O   0  0
    3.1526   -1.6305    1.8017 C   0  0
    3.3579   -2.8042    1.0570 C   0  0
    4.6361   -3.3524    0.9555 C   0  0
    5.7468   -2.7684    1.5862 C   0  0
    5.5182   -1.6029    2.3359 C   0  0
    4.2487   -1.0369    2.4502 C   0  0
    7.0475   -3.3396    1.4784 N   0  0
    2.0639   -3.6165    0.2339 Cl  0  0
   -3.3329   -0.6881   -0.4106 C   0  0
   -4.4573   -1.0977    0.5754 C   0  0
   -3.9284    0.1212   -1.5918 C   0  0
   -2.7888   -2.0102   -1.0237 C   0  0
    4.0905    0.4069    3.3988 Cl  0  0
    8.2200   -2.5957    1.9418 C   0  0
    7.3065   -4.4045    0.5080 C   0  0
    2.3322    0.5315    0.0331 C   0  0
    2.0565    0.0745   -1.3937 C   0  0
    2.8164   -0.9448   -1.9719 C   0  0
    2.6210   -1.3744   -3.2411 N   0  0
    1.6498   -0.7630   -3.9631 C   0  0
    0.8602    0.2764   -3.4737 C   0  0
    1.0774    0.7057   -2.1668 C   0  0
    0.5515    2.2259    2.1165 H   0  0
   -1.7574    3.0635    2.0490 H   0  0
   -0.6136   -1.2483   -0.0647 H   0  0
   -4.4224    1.3773    0.4992 H   0  0
    4.7392   -4.2497    0.3663 H   0  0
    6.3255   -1.1037    2.8475 H   0  0
   -5.1944   -1.7434    0.0954 H   0  0
   -4.0545   -1.6483    1.4269 H   0  0
   -5.0117   -0.2500    0.9736 H   0  0
   -4.6422   -0.4732   -2.1643 H   0  0
   -4.4640    1.0145   -1.2761 H   0  0
   -3.1483    0.4406   -2.2845 H   0  0
   -3.5736   -2.5727   -1.5321 H   0  0
   -2.0095   -1.8251   -1.7649 H   0  0
   -2.3761   -2.6731   -0.2614 H   0  0
    9.1183   -3.2142    1.9340 H   0  0
    8.3969   -1.7327    1.2988 H   0  0
    8.0920   -2.2308    2.9606 H   0  0
    8.2981   -4.8388    0.6415 H   0  0
    6.5866   -5.2177    0.5968 H   0  0
    7.2422   -4.0123   -0.5077 H   0  0
    2.2397    1.6181    0.0654 H   0  0
    3.3778    0.3244    0.2598 H   0  0
    3.6011   -1.4392   -1.4185 H   0  0
    1.5111   -1.1232   -4.9720 H   0  0
    0.1027    0.7371   -4.0902 H   0  0
    0.4841    1.5103   -1.7566 H   0  0
  1  2  2  0
  1  6  1  0
  1  8  1  0
  2  3  1  0
  2 33  1  0
  3  4  2  0
  3 34  1  0
  4  5  1  0
  4  7  1  0
  5  6  2  0
  5 19  1  0
  6 35  1  0
  7 36  1  0
  8  9  1  0
  8 26  1  0
  9 10  2  0
  9 11  1  0
 11 12  2  0
 11 16  1  0
 12 13  1  0
 12 18  1  0
 13 14  2  0
 13 37  1  0
 14 15  1  0
 14 17  1  0
 15 16  2  0
 15 38  1  0
 16 23  1  0
 17 24  1  0
 17 25  1  0
 19 20  1  0
 19 21  1  0
 19 22  1  0
 20 39  1  0
 20 40  1  0
 20 41  1  0
 21 42  1  0
 21 43  1  0
 21 44  1  0
 22 45  1  0
 22 46  1  0
 22 47  1  0
 24 48  1  0
 24 49  1  0
 24 50  1  0
 25 51  1  0
 25 52  1  0
 25 53  1  0
 26 27  1  0
 26 54  1  0
 26 55  1  0
 27 28  2  0
 27 32  1  0
 28 29  1  0
 28 56  1  0
 29 30  2  0
 30 31  1  0
 30 57  1  0
 31 32  2  0
 31 58  1  0
 32 59  1  0
M  END
> <Name>
ligand_194

> <activity>
1

$$$$
ligand_195
  SciTegic10272118463D

 55 58  0  0  1  0            999 V2000
   25.9926  -17.1705    1.4284 S   0  0
   24.6476  -16.5821    1.4209 O   0  0
   26.7141  -17.3545    2.6934 O   0  0
   27.2824  -14.4323   -1.3015 C   0  0
   26.4651  -15.2091   -0.4817 C   0  0
   27.0320  -16.1561    0.3758 C   0  0
   28.4188  -16.3283    0.4005 C   0  0
   29.2453  -15.5636   -0.4389 C   0  0
   28.6662  -14.6058   -1.2768 C   0  0
   30.6465  -15.6734   -0.4726 N   0  0
   31.4145  -16.7255   -0.1152 C   0  0
   32.8270  -16.4892   -0.2657 C   0  0
   30.9986  -17.8161    0.2797 O   0  0
   33.7938  -17.4651   -0.5373 C   0  0
   35.0091  -16.9816   -0.5741 N   0  0
   34.8805  -15.6785   -0.2744 N   0  0
   33.5640  -15.3208   -0.0323 C   0  0
   36.0379  -14.8684   -0.2324 C   0  0
   37.1579  -15.2834    0.4931 C   0  0
   38.2954  -14.4790    0.5283 C   0  0
   38.3109  -13.2651   -0.1580 C   0  0
   37.2018  -12.8501   -0.8864 C   0  0
   36.0685  -13.6543   -0.9233 C   0  0
   25.9040  -18.7454    0.6167 N   0  0
   25.1605  -18.7781   -0.6653 C   0  0
   24.9687  -20.2229   -1.1667 C   0  0
   26.2239  -20.9041   -1.2030 O   0  0
   26.8784  -20.9774    0.0647 C   0  0
   27.1435  -19.5597    0.6068 C   0  0
   33.1546  -13.9234    0.4054 C   0  0
   39.5121  -14.9202    1.3215 C   0  0
   26.8428  -13.6966   -1.9589 H   0  0
   25.3944  -15.0693   -0.5151 H   0  0
   28.8364  -17.0522    1.0834 H   0  0
   29.2833  -13.9965   -1.9219 H   0  0
   31.1318  -14.8716   -0.8460 H   0  0
   33.6027  -18.5129   -0.7217 H   0  0
   37.1432  -16.2219    1.0295 H   0  0
   39.1898  -12.6373   -0.1303 H   0  0
   37.2216  -11.9119   -1.4212 H   0  0
   35.2156  -13.3301   -1.5015 H   0  0
   24.1984  -18.2856   -0.5224 H   0  0
   25.7166  -18.1873   -1.3942 H   0  0
   24.2857  -20.7700   -0.5139 H   0  0
   24.5358  -20.2246   -2.1671 H   0  0
   26.2534  -21.5449    0.7568 H   0  0
   27.8156  -21.5221   -0.0512 H   0  0
   27.8830  -19.0494   -0.0110 H   0  0
   27.5440  -19.5983    1.6201 H   0  0
   32.1883  -13.9141    0.9090 H   0  0
   33.8661  -13.4918    1.1101 H   0  0
   33.0800  -13.2399   -0.4401 H   0  0
   40.4306  -14.5105    0.8993 H   0  0
   39.4300  -14.5801    2.3542 H   0  0
   39.6064  -16.0069    1.3265 H   0  0
  1  2  2  0
  1  3  2  0
  1  6  1  0
  1 24  1  0
  4  5  2  0
  4  9  1  0
  4 32  1  0
  5  6  1  0
  5 33  1  0
  6  7  2  0
  7  8  1  0
  7 34  1  0
  8  9  2  0
  8 10  1  0
  9 35  1  0
 10 11  1  0
 10 36  1  0
 11 12  1  0
 11 13  2  0
 12 14  1  0
 12 17  2  0
 14 15  2  0
 14 37  1  0
 15 16  1  0
 16 17  1  0
 16 18  1  0
 17 30  1  0
 18 19  2  0
 18 23  1  0
 19 20  1  0
 19 38  1  0
 20 21  2  0
 20 31  1  0
 21 22  1  0
 21 39  1  0
 22 23  2  0
 22 40  1  0
 23 41  1  0
 24 25  1  0
 24 29  1  0
 25 26  1  0
 25 42  1  0
 25 43  1  0
 26 27  1  0
 26 44  1  0
 26 45  1  0
 27 28  1  0
 28 29  1  0
 28 46  1  0
 28 47  1  0
 29 48  1  0
 29 49  1  0
 30 50  1  0
 30 51  1  0
 30 52  1  0
 31 53  1  0
 31 54  1  0
 31 55  1  0
M  END
> <Name>
ligand_195

> <activity>
1

$$$$
ligand_196
  SciTegic10272118463D

 40 42  0  0  1  0            999 V2000
   16.7350   -6.1377    0.7453 Cl  0  0
   14.6582  -10.0256    3.8093 Cl  0  0
   17.7181   -0.0071    8.6281 Cl  0  0
   14.6146   -3.1245    3.3275 S   0  0
   13.1508   -4.8877   -0.0972 N   0  0
   13.5421   -5.8466   -2.0770 N   0  3
   14.4787   -4.2745    1.9208 C   0  0  2  0  0  0
   13.2336   -3.9876    1.0474 C   0  0
   14.5610   -5.7381    2.3883 C   0  0
   16.2923   -3.4922    3.9226 C   0  0
   15.5423   -6.6221    1.9023 C   0  0
   13.6121   -6.2045    3.3076 C   0  0
   16.6534   -2.6139    5.1087 C   0  0
   12.3547   -6.0227   -0.1981 C   0  0
   13.8842   -4.7898   -1.2636 C   0  0
   15.5658   -7.9421    2.3479 C   0  0
   13.6416   -7.5235    3.7477 C   0  0
   14.6198   -8.3881    3.2666 C   0  0
   12.5940   -6.6195   -1.4314 C   0  0
   16.3581   -3.0394    6.4067 C   0  0
   17.2776   -1.3809    4.9001 C   0  0
   16.6874   -2.2338    7.4938 C   0  0
   17.6066   -0.5760    5.9878 C   0  0
   17.3106   -1.0053    7.2805 C   0  0
   15.3453   -4.0302    1.3082 H   0  0
   12.3161   -4.0758    1.6315 H   0  0
   13.2597   -2.9642    0.6699 H   0  0
   16.3580   -4.5434    4.2065 H   0  0
   17.0051   -3.3403    3.1107 H   0  0
   12.8478   -5.5410    3.6861 H   0  0
   11.7000   -6.3046    0.6141 H   0  0
   14.6094   -4.0216   -1.4918 H   0  0
   16.3180   -8.6236    1.9779 H   0  0
   12.9074   -7.8725    4.4592 H   0  0
   12.1898   -7.5078   -1.8964 H   0  0
   15.8725   -3.9900    6.5740 H   0  0
   17.5054   -1.0448    3.8989 H   0  0
   16.4590   -2.5616    8.4975 H   0  0
   18.0885    0.3774    5.8277 H   0  0
   13.9259   -6.0318   -2.9943 H   0  0
  1 11  1  0
  2 18  1  0
  3 24  1  0
  4  7  1  0
  4 10  1  0
  5  8  1  0
  5 14  1  0
  5 15  1  0
  6 15  2  0
  6 19  1  0
  6 40  1  0
  7  8  1  0
  7  9  1  0
  7 25  1  0
  8 26  1  0
  8 27  1  0
  9 11  2  0
  9 12  1  0
 10 13  1  0
 10 28  1  0
 10 29  1  0
 11 16  1  0
 12 17  2  0
 12 30  1  0
 13 20  2  0
 13 21  1  0
 14 19  2  0
 14 31  1  0
 15 32  1  0
 16 18  2  0
 16 33  1  0
 17 18  1  0
 17 34  1  0
 19 35  1  0
 20 22  1  0
 20 36  1  0
 21 23  2  0
 21 37  1  0
 22 24  2  0
 22 38  1  0
 23 24  1  0
 23 39  1  0
M  CHG  1   6   1
M  END
> <Name>
ligand_196

> <activity>
1

$$$$
ligand_197
  SciTegic10272118463D

 57 60  0  0  1  0            999 V2000
   -3.6122    1.4034   -1.4390 C   0  0
   -2.7581    0.1670   -1.2782 C   0  0
   -3.4118   -1.0183   -1.2884 O   0  0
   -2.4832   -2.0423   -1.1196 N   0  0
   -1.2973   -1.4749   -1.0210 C   0  0
   -0.0926   -2.3505   -0.8435 C   0  0
   -0.1208   -3.2861    0.2019 C   0  0
    0.9700   -4.1176    0.4489 C   0  0
    2.1021   -4.0364   -0.3579 C   0  0
    3.4564   -5.0614   -0.0532 Cl  0  0
    2.1345   -3.1335   -1.4187 C   0  0
    1.0435   -2.2997   -1.6732 C   0  0
    1.1255   -1.2714   -3.0611 Cl  0  0
   -1.4053   -0.0698   -1.0983 C   0  0
   -0.3894    0.9418   -1.0053 C   0  0
   -0.0851    1.4975   -2.0579 O   0  0
    0.1806    1.2439    0.2043 N   0  0
    1.3488    2.1763    0.2763 C   0  0
    1.0524    3.6873    0.0542 C   0  0
    1.3500    4.2230   -1.3617 C   0  0
    2.7467    3.8100   -1.8567 C   0  0
    2.9454    2.2854   -1.8072 C   0  0
    2.6693    1.7058   -0.4039 C   0  0
   -0.2222    0.7474    1.5558 C   0  0
   -1.7110    0.4315    1.8718 C   0  0
   -1.9509    0.2272    3.3798 C   0  0
   -1.0263   -0.8628    3.9536 C   0  0
    0.4558   -0.5588    3.6659 C   0  0
    0.7237   -0.3168    2.1665 C   0  0
   -4.3431    1.4905   -0.6352 H   0  0
   -3.0158    2.3159   -1.4310 H   0  0
   -4.1632    1.3886   -2.3792 H   0  0
   -0.9863   -3.3561    0.8457 H   0  0
    0.9360   -4.8212    1.2679 H   0  0
    3.0057   -3.0895   -2.0561 H   0  0
    1.6336    2.1522    1.3286 H   0  0
    0.0231    3.9171    0.3332 H   0  0
    1.6705    4.2549    0.7517 H   0  0
    0.5928    3.8804   -2.0650 H   0  0
    1.2697    5.3107   -1.3622 H   0  0
    2.9021    4.1715   -2.8739 H   0  0
    3.5070    4.2947   -1.2422 H   0  0
    2.3098    1.8062   -2.5499 H   0  0
    3.9653    2.0404   -2.1061 H   0  0
    3.4996    2.0059    0.2374 H   0  0
    2.7133    0.6161   -0.4346 H   0  0
   -0.0756    1.6371    2.1709 H   0  0
   -2.3526    1.2337    1.5051 H   0  0
   -2.0293   -0.4826    1.3761 H   0  0
   -1.7818    1.1667    3.9084 H   0  0
   -2.9937   -0.0386    3.5578 H   0  0
   -1.1851   -0.9588    5.0284 H   0  0
   -1.2895   -1.8286    3.5190 H   0  0
    0.7566    0.3249    4.2310 H   0  0
    1.0808   -1.3761    4.0278 H   0  0
    0.6197   -1.2515    1.6263 H   0  0
    1.7657   -0.0217    2.0399 H   0  0
  1  2  1  0
  1 30  1  0
  1 31  1  0
  1 32  1  0
  2  3  1  0
  2 14  2  0
  3  4  1  0
  4  5  2  0
  5  6  1  0
  5 14  1  0
  6  7  2  0
  6 12  1  0
  7  8  1  0
  7 33  1  0
  8  9  2  0
  8 34  1  0
  9 10  1  0
  9 11  1  0
 11 12  2  0
 11 35  1  0
 12 13  1  0
 14 15  1  0
 15 16  2  0
 15 17  1  0
 17 18  1  0
 17 24  1  0
 18 19  1  0
 18 23  1  0
 18 36  1  0
 19 20  1  0
 19 37  1  0
 19 38  1  0
 20 21  1  0
 20 39  1  0
 20 40  1  0
 21 22  1  0
 21 41  1  0
 21 42  1  0
 22 23  1  0
 22 43  1  0
 22 44  1  0
 23 45  1  0
 23 46  1  0
 24 25  1  0
 24 29  1  0
 24 47  1  0
 25 26  1  0
 25 48  1  0
 25 49  1  0
 26 27  1  0
 26 50  1  0
 26 51  1  0
 27 28  1  0
 27 52  1  0
 27 53  1  0
 28 29  1  0
 28 54  1  0
 28 55  1  0
 29 56  1  0
 29 57  1  0
M  END
> <Name>
ligand_197

> <activity>
1

$$$$
ligand_198
  SciTegic10272118463D

 55 58  0  0  1  0            999 V2000
    3.9025    0.7860    1.1416 C   0  0
    5.0099    1.5957    1.5415 C   0  0
    9.4447    3.9958   -2.2422 N   0  0
   10.1041    3.7553   -1.1183 C   0  0
    6.2566    1.4525    0.9039 N   0  0
    2.6779    1.0194    1.8375 C   0  0
    3.9384   -0.2131    0.1295 C   0  0
    7.4804    2.1151    1.1093 C   0  0
   10.2005    4.4316   -3.2209 C   0  0
    4.9001    2.5359    2.5139 N   0  0
   11.8733    4.5813   -2.7975 S   0  0
   11.4737    4.0138   -1.2077 C   0  0
    1.5368    0.2599    1.5032 C   0  0
    9.3807    3.2516    0.0961 C   0  0
    2.7914   -0.9578   -0.1877 C   0  0
    1.5976   -0.7046    0.4996 C   0  0
    8.1604    2.5738   -0.0195 C   0  0
    2.5737    1.9574    2.8197 N   0  0
    3.6918    2.6647    3.1041 C   0  0
    8.0629    2.3018    2.3772 C   0  0
    9.9247    3.4616    1.3667 C   0  0
    9.2701    2.9887    2.4984 C   0  0
    2.7621   -1.9491   -1.1527 O   0  0
    0.4616   -1.4236    0.2194 O   0  0
    7.4902    1.8195    3.5294 O   0  0
    9.6566    4.7695   -4.5884 C   0  0
    3.9380   -2.2459   -1.8992 C   0  0
   -0.2630   -0.9613   -0.9143 C   0  0
    7.7001    0.4319    3.7556 C   0  0
   -1.4926   -1.8527   -1.1095 C   0  0
    3.6138   -3.3619   -2.8962 C   0  0
    6.2001    0.9449    0.0343 H   0  0
    4.8696   -0.3896   -0.3860 H   0  0
   12.2356    3.9001   -0.4511 H   0  0
    0.6103    0.4351    2.0309 H   0  0
    7.7303    2.4131   -0.9983 H   0  0
    3.6100    3.4107    3.8815 H   0  0
   10.8592    3.9895    1.4877 H   0  0
    9.7069    3.1427    3.4743 H   0  0
    9.8433    5.8125   -4.8440 H   0  0
   10.1216    4.1598   -5.3631 H   0  0
    8.5799    4.6109   -4.6604 H   0  0
    4.2810   -1.3613   -2.4388 H   0  0
    4.7405   -2.5696   -1.2341 H   0  0
   -0.5761    0.0744   -0.7674 H   0  0
    0.3574   -0.9902   -1.8121 H   0  0
    7.2561   -0.1816    2.9705 H   0  0
    7.2340    0.1469    4.6987 H   0  0
    8.7631    0.1953    3.8253 H   0  0
   -2.0782   -1.5275   -1.9696 H   0  0
   -1.2015   -2.8900   -1.2770 H   0  0
   -2.1414   -1.8239   -0.2337 H   0  0
    4.4898   -3.6209   -3.4913 H   0  0
    3.2817   -4.2637   -2.3812 H   0  0
    2.8225   -3.0576   -3.5819 H   0  0
  1  2  1  0
  1  6  1  0
  1  7  2  0
  2  5  1  0
  2 10  2  0
  3  4  1  0
  3  9  2  0
  4 12  2  0
  4 14  1  0
  5  8  1  0
  5 32  1  0
  6 13  2  0
  6 18  1  0
  7 15  1  0
  7 33  1  0
  8 17  2  0
  8 20  1  0
  9 11  1  0
  9 26  1  0
 10 19  1  0
 11 12  1  0
 12 34  1  0
 13 16  1  0
 13 35  1  0
 14 17  1  0
 14 21  2  0
 15 16  2  0
 15 23  1  0
 16 24  1  0
 17 36  1  0
 18 19  2  0
 19 37  1  0
 20 22  2  0
 20 25  1  0
 21 22  1  0
 21 38  1  0
 22 39  1  0
 23 27  1  0
 24 28  1  0
 25 29  1  0
 26 40  1  0
 26 41  1  0
 26 42  1  0
 27 31  1  0
 27 43  1  0
 27 44  1  0
 28 30  1  0
 28 45  1  0
 28 46  1  0
 29 47  1  0
 29 48  1  0
 29 49  1  0
 30 50  1  0
 30 51  1  0
 30 52  1  0
 31 53  1  0
 31 54  1  0
 31 55  1  0
M  END
> <Name>
ligand_198

> <activity>
1

$$$$
ligand_199
  SciTegic10272118463D

 63 67  0  0  1  0            999 V2000
    2.6683    3.3105    0.2627 C   0  0
    1.5263    2.4861    0.5113 C   0  0
    1.9940    1.2201    0.8121 N   0  0
    3.3662    1.2329    0.7603 C   0  0
    3.8463    2.4891    0.4277 C   0  0
    5.2540    2.8735    0.2812 C   0  0
    5.4963    4.0617   -0.0260 O   0  5
    6.1094    1.9804    0.4755 O   0  0
    1.1767    0.0606    1.1326 C   0  0
    1.1454    5.1427   -0.1435 C   0  0
    0.0386    4.3291    0.1090 C   0  0
    0.2172    2.9792    0.4340 C   0  0
    2.4486    4.6583   -0.0703 C   0  0
   -1.3351    4.8991    0.0124 C   0  0
   -3.5210    5.4137    0.9313 C   0  0
   -3.9143    5.9822   -0.2882 C   0  0
   -3.0106    6.0086   -1.3462 C   0  0
   -1.7356    5.4753   -1.1976 C   0  0
   -2.2403    4.8794    1.0919 C   0  0
   -1.8619    4.3053    2.4524 C   0  0
   -5.1575    6.5340   -0.5291 O   0  0
   -6.1091    6.6116    0.5275 C   0  0
   -7.3355    7.3432    0.0225 C   0  0
   -8.7218    8.9147   -0.7665 O   0  0
   -9.4647    7.7471   -0.6410 N   0  0
   -8.6323    6.8406   -0.1796 C   0  0
   -7.4510    8.6765   -0.3572 C   0  0
   -6.5122    9.8684   -0.4465 C   0  0  2  0  0  0
   -5.9147    9.9959   -2.1213 Cl  0  0
   -5.3183    9.8225    0.5205 C   0  0
   -9.0754    5.4773    0.0930 C   0  0
   -9.0352    5.0087    1.4713 C   0  0
   -9.4362    3.7476    1.7068 C   0  0
   -9.8816    2.8681    0.7496 N   0  0
   -9.9502    3.2420   -0.5800 C   0  0
   -9.5122    4.6186   -0.8748 C   0  0
   -9.5531    5.1121   -2.5808 Cl  0  0
  -10.3468    2.4940   -1.4782 O   0  0
  -10.3009    1.5075    1.1104 C   0  0
    3.9122    0.3237    0.9694 H   0  0
    0.5766    0.2759    2.0173 H   0  0
    0.5174   -0.1592    0.2924 H   0  0
    1.8067   -0.8078    1.3300 H   0  0
    0.9954    6.1822   -0.3978 H   0  0
   -0.6330    2.3382    0.6162 H   0  0
    3.2776    5.3213   -0.2688 H   0  0
   -4.2026    5.3837    1.7678 H   0  0
   -3.3007    6.4451   -2.2907 H   0  0
   -1.0550    5.5025   -2.0365 H   0  0
   -0.8362    4.5630    2.7183 H   0  0
   -2.5056    4.6896    3.2446 H   0  0
   -1.9544    3.2193    2.4444 H   0  0
   -6.3574    5.6021    0.8573 H   0  0
   -5.6924    7.1249    1.3951 H   0  0
   -7.0682   10.7859   -0.2489 H   0  0
   -4.7409   10.7458    0.4659 H   0  0
   -5.6477    9.7045    1.5533 H   0  0
   -4.6359    9.0058    0.2865 H   0  0
   -8.6990    5.6459    2.2770 H   0  0
   -9.4412    3.3142    2.6975 H   0  0
  -10.6286    0.8979    0.2671 H   0  0
   -9.4751    0.9817    1.5904 H   0  0
  -11.1267    1.5517    1.8210 H   0  0
  1  2  1  0
  1  5  1  0
  1 13  2  0
  2  3  1  0
  2 12  2  0
  3  4  1  0
  3  9  1  0
  4  5  2  0
  4 40  1  0
  5  6  1  0
  6  7  1  0
  6  8  2  0
  9 41  1  0
  9 42  1  0
  9 43  1  0
 10 11  2  0
 10 13  1  0
 10 44  1  0
 11 12  1  0
 11 14  1  0
 12 45  1  0
 13 46  1  0
 14 18  2  0
 14 19  1  0
 15 16  1  0
 15 19  2  0
 15 47  1  0
 16 17  2  0
 16 21  1  0
 17 18  1  0
 17 48  1  0
 18 49  1  0
 19 20  1  0
 20 50  1  0
 20 51  1  0
 20 52  1  0
 21 22  1  0
 22 23  1  0
 22 53  1  0
 22 54  1  0
 23 26  1  0
 23 27  2  0
 24 25  1  0
 24 27  1  0
 25 26  2  0
 26 31  1  0
 27 28  1  0
 28 29  1  0
 28 30  1  0
 28 55  1  0
 30 56  1  0
 30 57  1  0
 30 58  1  0
 31 32  1  0
 31 36  2  0
 32 33  2  0
 32 59  1  0
 33 34  1  0
 33 60  1  0
 34 35  1  0
 34 39  1  0
 35 36  1  0
 35 38  2  0
 36 37  1  0
 39 61  1  0
 39 62  1  0
 39 63  1  0
M  CHG  1   7  -1
M  END
> <Name>
ligand_199

> <activity>
1

$$$$
ligand_200
  SciTegic10272118463D

 72 74  0  0  1  0            999 V2000
   31.5636  -33.9347    6.3046 C   0  0
   31.7427  -33.8689    7.8436 C   0  0
   30.2856  -34.7812    6.0354 C   0  0
   29.9776  -25.6381   -1.6925 C   0  0
   30.0204  -26.8780   -2.3424 C   0  0
   30.2204  -28.0629   -1.6333 C   0  0
   30.3918  -28.0267   -0.2439 C   0  0
   30.3762  -26.7828    0.4058 C   0  0
   30.1822  -25.5822   -0.2992 C   0  0
   30.2388  -29.3873   -2.3918 C   0  0
   28.8704  -30.0926   -2.3849 C   0  0
   29.7805  -24.4141   -2.5356 C   0  0
   28.8976  -23.2989   -1.9738 C   0  0
   30.2022  -24.3427    0.3187 O   0  0
   30.5713  -29.2337    0.4098 O   0  0
   30.7178  -29.2614    1.8263 C   0  0
   30.8673  -30.7226    2.2737 C   0  0
   31.0277  -30.8715    3.7972 C   0  0
   31.1802  -32.3366    4.2430 C   0  0
   31.3392  -32.4834    5.7740 C   0  0
   32.8336  -34.5594    5.6728 C   0  0
   32.8422  -35.6801    4.9800 N   0  0
   34.1485  -35.8726    4.5993 N   0  0
   34.8834  -34.8304    5.0969 N   0  0
   34.0239  -34.0042    5.7804 N   0  5
   30.3477  -24.2409    1.7318 C   0  0
   30.2710  -22.7750    2.1223 C   0  0
   31.4349  -22.0258    2.2781 C   0  0
   31.3608  -20.6836    2.6299 C   0  0
   30.1236  -20.0832    2.8258 C   0  0
   28.9599  -20.8251    2.6689 C   0  0
   29.0329  -22.1674    2.3174 C   0  0
   28.8832  -31.4315   -3.1426 C   0  0
   27.5198  -32.1361   -3.1332 C   0  0
   30.1320  -24.3348   -3.7132 O   0  0
   32.5934  -33.2477    8.1275 H   0  0
   30.8633  -33.4506    8.3354 H   0  0
   31.9119  -34.8597    8.2681 H   0  0
   30.1003  -34.9184    4.9699 H   0  0
   30.3666  -35.7772    6.4733 H   0  0
   29.3960  -34.3147    6.4608 H   0  0
   29.8848  -26.9335   -3.4144 H   0  0
   30.5258  -26.7503    1.4718 H   0  0
   30.5636  -29.2136   -3.4192 H   0  0
   31.0006  -30.0391   -1.9609 H   0  0
   28.5569  -30.2650   -1.3538 H   0  0
   28.1208  -29.4333   -2.8257 H   0  0
   28.4435  -22.7250   -2.7819 H   0  0
   28.0941  -23.7155   -1.3663 H   0  0
   29.4858  -22.6197   -1.3569 H   0  0
   29.8436  -28.8154    2.3046 H   0  0
   31.5985  -28.6897    2.1251 H   0  0
   31.7294  -31.1645    1.7717 H   0  0
   29.9963  -31.2897    1.9417 H   0  0
   30.1647  -30.4292    4.2976 H   0  0
   31.8980  -30.3016    4.1267 H   0  0
   32.0435  -32.7730    3.7386 H   0  0
   30.3115  -32.9016    3.9047 H   0  0
   30.4603  -32.0535    6.2578 H   0  0
   32.1741  -31.8558    6.0916 H   0  0
   29.5561  -24.7918    2.2438 H   0  0
   31.3035  -24.6599    2.0528 H   0  0
   32.4023  -22.4820    2.1245 H   0  0
   32.2658  -20.1064    2.7497 H   0  0
   30.0666  -19.0396    3.0986 H   0  0
   27.9976  -20.3581    2.8189 H   0  0
   28.1221  -22.7354    2.1937 H   0  0
   29.1923  -31.2653   -4.1756 H   0  0
   29.6301  -32.0939   -2.7027 H   0  0
   27.5655  -33.0796   -3.6777 H   0  0
   27.1955  -32.3571   -2.1157 H   0  0
   26.7523  -31.5201   -3.6030 H   0  0
  1  2  1  0
  1  3  1  0
  1 20  1  0
  1 21  1  0
  2 36  1  0
  2 37  1  0
  2 38  1  0
  3 39  1  0
  3 40  1  0
  3 41  1  0
  4  5  2  0
  4  9  1  0
  4 12  1  0
  5  6  1  0
  5 42  1  0
  6  7  2  0
  6 10  1  0
  7  8  1  0
  7 15  1  0
  8  9  2  0
  8 43  1  0
  9 14  1  0
 10 11  1  0
 10 44  1  0
 10 45  1  0
 11 33  1  0
 11 46  1  0
 11 47  1  0
 12 13  1  0
 12 35  2  0
 13 48  1  0
 13 49  1  0
 13 50  1  0
 14 26  1  0
 15 16  1  0
 16 17  1  0
 16 51  1  0
 16 52  1  0
 17 18  1  0
 17 53  1  0
 17 54  1  0
 18 19  1  0
 18 55  1  0
 18 56  1  0
 19 20  1  0
 19 57  1  0
 19 58  1  0
 20 59  1  0
 20 60  1  0
 21 22  2  0
 21 25  1  0
 22 23  1  0
 23 24  2  0
 24 25  1  0
 26 27  1  0
 26 61  1  0
 26 62  1  0
 27 28  2  0
 27 32  1  0
 28 29  1  0
 28 63  1  0
 29 30  2  0
 29 64  1  0
 30 31  1  0
 30 65  1  0
 31 32  2  0
 31 66  1  0
 32 67  1  0
 33 34  1  0
 33 68  1  0
 33 69  1  0
 34 70  1  0
 34 71  1  0
 34 72  1  0
M  CHG  1  25  -1
M  END
> <Name>
ligand_200

> <activity>
1

$$$$
ligand_201
  SciTegic10272118463D

 34 35  0  0  1  0            999 V2000
   -0.2107  -19.2722   -2.7607 C   0  0
    1.9285  -20.2826   -1.8766 N   0  3
    0.8298  -19.2373   -1.6057 C   0  0  1  0  0  0
    1.4721  -17.8354   -1.4210 C   0  0
    2.4666  -17.7664   -0.2684 C   0  0
    3.8417  -17.8011   -0.5164 C   0  0
    4.7508  -17.7520    0.5406 C   0  0
    6.8018  -17.8110    0.1199 I   0  0
    4.2888  -17.6711    1.8602 C   0  0
    5.1829  -17.6259    2.9050 O   0  0
    5.6263  -18.7870    3.5099 C   0  0
    6.5373  -18.6512    4.5572 C   0  0
    7.0391  -19.7689    5.2250 C   0  0
    8.4060  -19.4476    6.7868 I   0  0
    6.6261  -21.0548    4.8435 C   0  0
    7.0789  -22.0782    5.4463 O   0  5
    5.7096  -21.2029    3.7913 C   0  0
    5.0325  -23.0837    3.1479 I   0  0
    5.2171  -20.0756    3.1340 C   0  0
    2.9115  -17.6234    2.1093 C   0  0
    2.1760  -17.4885    4.0659 I   0  0
    2.0074  -17.6726    1.0480 C   0  0
   -0.0697  -20.0717   -3.7167 O   0  0
   -1.1776  -18.4848   -2.6577 O   0  5
    2.5907  -20.2903   -1.1141 H   0  0
    1.5189  -21.2022   -1.9596 H   0  0
    0.3719  -19.5951   -0.6821 H   0  0
    1.9589  -17.5115   -2.3435 H   0  0
    0.6981  -17.0892   -1.2305 H   0  0
    4.2091  -17.8681   -1.5303 H   0  0
    6.8593  -17.6641    4.8554 H   0  0
    4.5127  -20.2152    2.3277 H   0  0
    0.9461  -17.6421    1.2492 H   0  0
    2.4187  -20.0575   -2.7304 H   0  0
  1  3  1  0
  1 23  2  0
  1 24  1  0
  2  3  1  0
  2 25  1  0
  2 26  1  0
  2 34  1  0
  3  4  1  0
  3 27  1  0
  4  5  1  0
  4 28  1  0
  4 29  1  0
  5  6  2  0
  5 22  1  0
  6  7  1  0
  6 30  1  0
  7  8  1  0
  7  9  2  0
  9 10  1  0
  9 20  1  0
 10 11  1  0
 11 12  2  0
 11 19  1  0
 12 13  1  0
 12 31  1  0
 13 14  1  0
 13 15  2  0
 15 16  1  0
 15 17  1  0
 17 18  1  0
 17 19  2  0
 19 32  1  0
 20 21  1  0
 20 22  2  0
 22 33  1  0
M  CHG  3   2   1  16  -1  24  -1
M  END
> <Name>
ligand_201

> <activity>
1

$$$$
ligand_202
  SciTegic10272118463D

 26 26  0  0  1  0            999 V2000
    7.6097   -8.4684    1.6066 C   0  0
    7.1576   -6.6589    0.0563 C   0  0
    8.7252  -11.4706    1.1173 C   0  0
    6.7483   -7.8253    0.7036 C   0  0
    8.4233   -6.1256    0.2992 C   0  0
    8.8775   -7.9262    1.8473 C   0  0
    9.2887   -6.7616    1.1970 C   0  0
    7.2710  -11.0399    1.4670 C   0  0  2  0  0  0
    7.1891   -9.7494    2.3288 C   0  0
    6.5884  -12.1778    2.2458 N   0  3
    9.2367  -12.4727    1.6714 O   0  5
    9.3250  -10.7709    0.2717 O   0  0
    5.4984   -8.3225    0.4368 O   0  0
    8.8035   -4.9795   -0.3508 O   0  0
   10.5403   -6.2548    1.4463 O   0  0
    6.4952   -6.1637   -0.6391 H   0  0
    9.5488   -8.4202    2.5349 H   0  0
    6.6603  -10.9666    0.5658 H   0  0
    7.7774   -9.8643    3.2418 H   0  0
    6.1651   -9.6044    2.6783 H   0  0
    6.5855  -13.0230    1.6930 H   0  0
    7.0795  -12.3477    3.1119 H   0  0
    5.0199   -7.7909   -0.2031 H   0  0
    9.6941   -4.7127   -0.1098 H   0  0
   11.0509   -6.7895    2.0586 H   0  0
    5.6336  -11.9258    2.4573 H   0  0
  1  4  2  0
  1  6  1  0
  1  9  1  0
  2  4  1  0
  2  5  2  0
  2 16  1  0
  3  8  1  0
  3 11  1  0
  3 12  2  0
  4 13  1  0
  5  7  1  0
  5 14  1  0
  6  7  2  0
  6 17  1  0
  7 15  1  0
  8  9  1  0
  8 10  1  0
  8 18  1  0
  9 19  1  0
  9 20  1  0
 10 21  1  0
 10 22  1  0
 10 26  1  0
 13 23  1  0
 14 24  1  0
 15 25  1  0
M  CHG  2  10   1  11  -1
M  END
> <Name>
ligand_202

> <activity>
1

$$$$
ligand_203
  SciTegic10272118463D

 79 83  0  0  1  0            999 V2000
   -3.6311   -1.1780    1.4588 C   0  0
   -2.7162   -2.2211    0.8003 C   0  0
   -2.2606   -1.8687   -0.6467 C   0  0
   -4.8586   -0.8498    0.5855 C   0  0
   -4.5240   -0.3846   -0.8697 C   0  0  1  0  0  0
   -3.5277   -1.4441   -1.4933 C   0  0  1  0  0  0
   -3.2612   -1.1600   -2.9940 C   0  0
   -4.5778   -1.1778   -3.8010 C   0  0
   -5.8458   -0.3765   -1.7617 C   0  0  2  0  0  0
   -5.6797   -0.1603   -3.3256 C   0  0  2  0  0  0
   -8.3966    0.1005   -1.9269 C   0  0  2  0  0  0
   -7.0633    0.3925   -1.1811 C   0  0
   -8.3613    0.3605   -3.4749 C   0  0  1  0  0  0
   -7.0935   -0.4368   -4.0459 C   0  0  2  0  0  0
   -7.3681   -1.9795   -4.1764 C   0  0
   -8.6884   -2.3018   -4.8177 C   0  0
   -9.7496   -0.1346   -4.1025 C   0  0  2  0  0  0
   -9.7300   -1.4714   -4.7951 C   0  0
  -11.0389   -1.5127   -5.5189 C   0  0
  -11.0069   -0.2356   -6.1173 O   0  0
  -10.4440    0.6864   -5.2291 C   0  0  1  0  0  0
   -3.9204    1.0468   -0.7699 C   0  0
   -5.1029    1.2298   -3.7950 C   0  0
   -1.6600   -3.1780   -1.2303 C   0  0
   -1.1689   -0.7691   -0.6007 C   0  0
   -8.2266    1.8992   -3.6989 C   0  0
   -9.4644    0.8304   -1.3062 O   0  0
  -11.3878    1.4995   -4.6487 O   0  0
  -10.0944    0.3814   -0.1975 C   0  0
  -11.1928    1.3292    0.2632 C   0  0
   -9.8522   -0.6631    0.4081 O   0  0
   -5.3824    2.3604   -2.9841 O   0  0
   -4.9332    3.5849   -3.3241 C   0  0
   -4.2671    3.8686   -4.3203 O   0  0
   -5.3436    4.6472   -2.3141 C   0  0
   -3.9682   -1.5547    2.4254 H   0  0
   -3.0646   -0.2764    1.6879 H   0  0
   -1.8491   -2.3949    1.4399 H   0  0
   -3.2606   -3.1678    0.7911 H   0  0
   -5.4953   -1.7357    0.5496 H   0  0
   -5.4403   -0.0897    1.1079 H   0  0
   -4.1129   -2.3673   -1.5076 H   0  0
   -2.7131   -0.2293   -3.1248 H   0  0
   -2.6151   -1.9241   -3.4225 H   0  0
   -4.3643   -1.0433   -4.8631 H   0  0
   -4.9168   -2.2064   -3.7021 H   0  0
   -6.1831   -1.4103   -1.6765 H   0  0
   -8.6239   -0.9598   -1.7948 H   0  0
   -7.2155    0.1005   -0.1441 H   0  0
   -6.8691    1.4615   -1.1391 H   0  0
   -6.9875   -0.1018   -5.0797 H   0  0
   -6.6379   -2.4347   -4.8439 H   0  0
   -7.3096   -2.5017   -3.2223 H   0  0
   -8.7752   -3.2178   -5.3844 H   0  0
  -10.4785   -0.2367   -3.2943 H   0  0
  -11.0988   -2.2936   -6.2776 H   0  0
  -11.8937   -1.6164   -4.8475 H   0  0
   -9.7341    1.2674   -5.8197 H   0  0
   -3.3883    1.3481   -1.6688 H   0  0
   -4.6904    1.7909   -0.5728 H   0  0
   -3.2212    1.1696    0.0502 H   0  0
   -4.0182    1.1931   -3.8809 H   0  0
   -5.4388    1.4349   -4.8127 H   0  0
   -0.8911   -3.5883   -0.5738 H   0  0
   -2.4133   -3.9557   -1.3641 H   0  0
   -1.1778   -3.0174   -2.1940 H   0  0
   -0.2476   -1.1598   -0.1668 H   0  0
   -0.9151   -0.4068   -1.5966 H   0  0
   -1.4344    0.0892    0.0075 H   0  0
   -9.1928    2.3992   -3.6694 H   0  0
   -7.6928    2.4153   -2.9125 H   0  0
   -7.7689    2.1445   -4.6574 H   0  0
  -11.6396    2.1655   -5.2924 H   0  0
  -11.6979    0.9328    1.1442 H   0  0
  -10.7707    2.3019    0.5151 H   0  0
  -11.9311    1.4634   -0.5273 H   0  0
   -4.9680    5.6262   -2.6121 H   0  0
   -6.4299    4.7008   -2.2429 H   0  0
   -4.9411    4.4076   -1.3300 H   0  0
  1  2  1  0
  1  4  1  0
  1 36  1  0
  1 37  1  0
  2  3  1  0
  2 38  1  0
  2 39  1  0
  3  6  1  0
  3 24  1  0
  3 25  1  0
  4  5  1  0
  4 40  1  0
  4 41  1  0
  5  6  1  0
  5  9  1  0
  5 22  1  0
  6  7  1  0
  6 42  1  0
  7  8  1  0
  7 43  1  0
  7 44  1  0
  8 10  1  0
  8 45  1  0
  8 46  1  0
  9 10  1  0
  9 12  1  0
  9 47  1  0
 10 14  1  0
 10 23  1  0
 11 12  1  0
 11 13  1  0
 11 27  1  0
 11 48  1  0
 12 49  1  0
 12 50  1  0
 13 14  1  0
 13 17  1  0
 13 26  1  0
 14 15  1  0
 14 51  1  0
 15 16  1  0
 15 52  1  0
 15 53  1  0
 16 18  2  0
 16 54  1  0
 17 18  1  0
 17 21  1  0
 17 55  1  0
 18 19  1  0
 19 20  1  0
 19 56  1  0
 19 57  1  0
 20 21  1  0
 21 28  1  0
 21 58  1  0
 22 59  1  0
 22 60  1  0
 22 61  1  0
 23 32  1  0
 23 62  1  0
 23 63  1  0
 24 64  1  0
 24 65  1  0
 24 66  1  0
 25 67  1  0
 25 68  1  0
 25 69  1  0
 26 70  1  0
 26 71  1  0
 26 72  1  0
 27 29  1  0
 28 73  1  0
 29 30  1  0
 29 31  2  0
 30 74  1  0
 30 75  1  0
 30 76  1  0
 32 33  1  0
 33 34  2  0
 33 35  1  0
 35 77  1  0
 35 78  1  0
 35 79  1  0
M  END
> <Name>
ligand_203

> <activity>
1

$$$$
ligand_204
  SciTegic10272118463D

 67 72  0  0  1  0            999 V2000
    1.5617    0.6260    1.6176 C   0  0
    0.9623   -0.2877    0.7550 C   0  0
   -0.4084   -0.2191    0.5212 C   0  0
   -1.1885    0.7573    1.1529 C   0  0
   -0.5672    1.6781    2.0090 C   0  0
    0.8028    1.6105    2.2442 C   0  0
   -2.7090    0.7865    0.8882 C   0  0  1  0  0  0
   -3.5513    0.3891    2.0311 N   0  0
   -3.2572    2.0352    0.1781 C   0  0
   -4.1386    1.8963   -0.8994 C   0  0
   -4.6223    3.0308   -1.5492 C   0  0
   -4.2102    4.2865   -1.1133 C   0  0
   -3.3275    4.3496   -0.0374 C   0  0
   -2.8518    3.2587    0.6124 N   0  0
   -3.3606    1.0313    3.2609 C   0  0
   -3.0123    2.4816    5.6237 N   0  0
   -3.7471    2.8996    4.5657 C   0  0
   -3.9629    2.2374    3.4064 N   0  0
   -2.4674    1.2719    5.4689 C   0  0
   -2.6006    0.4517    4.3083 C   0  0
   -1.4796    0.5256    6.7016 S   0  0
   -1.2841   -0.8935    5.7005 C   0  0
   -1.9267   -0.8072    4.4642 C   0  0
   -1.9236   -1.9632    3.4644 C   0  0
   -0.7908   -2.9577    3.7958 C   0  0
   -0.7485   -3.3227    5.2943 C   0  0  2  0  0  0
   -0.4486   -2.0791    6.1664 C   0  0
    0.2518   -4.4578    5.5761 C   0  0
   -4.3508    4.2909    4.6654 C   0  0
   -3.9685    5.2307    3.4920 N   0  3
   -4.8118    6.5279    3.4976 C   0  0
   -4.3135    7.4929    4.5951 C   0  0
   -2.9161    7.7377    4.4633 O   0  0
   -2.1009    6.5745    4.5760 C   0  0
   -2.4518    5.5477    3.4785 C   0  0
    2.6249    0.5722    1.8001 H   0  0
    1.5578   -1.0474    0.2704 H   0  0
   -0.8620   -0.9376   -0.1460 H   0  0
   -1.1427    2.4462    2.5030 H   0  0
    1.2743    2.3182    2.9099 H   0  0
   -2.8808   -0.0246    0.1790 H   0  0
   -4.5103    0.5171    1.7431 H   0  0
   -4.4497    0.9174   -1.2339 H   0  0
   -5.3039    2.9363   -2.3818 H   0  0
   -4.5612    5.1852   -1.5987 H   0  0
   -2.9796    5.3072    0.3194 H   0  0
   -2.8860   -2.4756    3.4890 H   0  0
   -1.7965   -1.6223    2.4404 H   0  0
   -0.9219   -3.8562    3.1908 H   0  0
    0.1683   -2.5322    3.4942 H   0  0
   -1.7375   -3.6947    5.5706 H   0  0
    0.6098   -1.8208    6.1084 H   0  0
   -0.6528   -2.3054    7.2138 H   0  0
    0.2486   -4.7340    6.6311 H   0  0
    0.0048   -5.3535    5.0050 H   0  0
    1.2698   -4.1681    5.3126 H   0  0
   -5.4379    4.2095    4.6275 H   0  0
   -4.0787    4.7978    5.5918 H   0  0
   -4.6679    6.9549    2.5037 H   0  0
   -5.8620    6.2522    3.6048 H   0  0
   -4.8387    8.4452    4.5165 H   0  0
   -4.5270    7.1047    5.5923 H   0  0
   -1.0572    6.8749    4.4800 H   0  0
   -2.2059    6.1437    5.5729 H   0  0
   -1.9014    4.6103    3.5688 H   0  0
   -2.2620    5.9595    2.4870 H   0  0
   -4.1812    4.7191    2.6449 H   0  0
  1  2  1  0
  1  6  2  0
  1 36  1  0
  2  3  2  0
  2 37  1  0
  3  4  1  0
  3 38  1  0
  4  5  2  0
  4  7  1  0
  5  6  1  0
  5 39  1  0
  6 40  1  0
  7  8  1  0
  7  9  1  0
  7 41  1  0
  8 15  1  0
  8 42  1  0
  9 10  2  0
  9 14  1  0
 10 11  1  0
 10 43  1  0
 11 12  2  0
 11 44  1  0
 12 13  1  0
 12 45  1  0
 13 14  2  0
 13 46  1  0
 15 18  1  0
 15 20  2  0
 16 17  1  0
 16 19  2  0
 17 18  2  0
 17 29  1  0
 19 20  1  0
 19 21  1  0
 20 23  1  0
 21 22  1  0
 22 23  2  0
 22 27  1  0
 23 24  1  0
 24 25  1  0
 24 47  1  0
 24 48  1  0
 25 26  1  0
 25 49  1  0
 25 50  1  0
 26 27  1  0
 26 28  1  0
 26 51  1  0
 27 52  1  0
 27 53  1  0
 28 54  1  0
 28 55  1  0
 28 56  1  0
 29 30  1  0
 29 57  1  0
 29 58  1  0
 30 31  1  0
 30 35  1  0
 30 67  1  0
 31 32  1  0
 31 59  1  0
 31 60  1  0
 32 33  1  0
 32 61  1  0
 32 62  1  0
 33 34  1  0
 34 35  1  0
 34 63  1  0
 34 64  1  0
 35 65  1  0
 35 66  1  0
M  CHG  1  30   1
M  END
> <Name>
ligand_204

> <activity>
1

$$$$
ligand_205
  SciTegic10272118463D

 49 52  0  0  1  0            999 V2000
    1.5290  -17.7260    0.8202 S   0  0
    0.4872  -16.9510    1.5044 O   0  0
    2.2970  -18.7331    1.5622 O   0  0
    3.1192  -14.5950   -1.2381 C   0  0
    2.2195  -15.5095   -0.6935 C   0  0
    2.6835  -16.5353    0.1368 C   0  0
    4.0507  -16.6382    0.4173 C   0  0
    4.9595  -15.7114   -0.1219 C   0  0
    4.4809  -14.6973   -0.9568 C   0  0
    6.3502  -15.7402    0.0931 N   0  0
    7.0518  -16.3920    1.0470 C   0  0
    8.4732  -16.1959    0.9493 C   0  0
    6.5767  -17.0934    1.9406 O   0  0
    9.4805  -17.0146    1.4804 C   0  0
   10.6887  -16.5366    1.2867 N   0  0
   10.5112  -15.3584    0.6622 N   0  0
    9.1752  -15.1004    0.4582 C   0  0
   11.6132  -14.5458    0.3085 C   0  0
   12.7507  -14.4911    1.1181 C   0  0
   13.8253  -13.6854    0.7629 C   0  0
   13.7740  -12.9291   -0.4005 C   0  0
   12.6471  -12.9778   -1.2105 C   0  0
   11.5699  -13.7818   -0.8590 C   0  0
    0.7882  -18.5196   -0.5864 N   0  0
   -0.4915  -19.2229   -0.3297 C   0  0
   -0.2505  -20.6634    0.1645 C   0  0
    0.5851  -21.3586   -0.7632 O   0  0
    1.8656  -20.7558   -0.9626 C   0  0
    1.7038  -19.3011   -1.4556 C   0  0
    0.9030  -15.3963   -0.9852 F   0  0
    2.7608  -13.8054   -1.8821 H   0  0
    4.3894  -17.4490    1.0423 H   0  0
    5.1602  -13.9776   -1.3912 H   0  0
    6.8892  -15.1731   -0.5434 H   0  0
    9.3266  -17.9524    1.9952 H   0  0
    8.8507  -14.1796   -0.0042 H   0  0
   12.8068  -15.0699    2.0291 H   0  0
   14.7017  -13.6469    1.3931 H   0  0
   14.6105  -12.3035   -0.6754 H   0  0
   12.6089  -12.3904   -2.1163 H   0  0
   10.7055  -13.8100   -1.5067 H   0  0
   -1.0795  -18.6470    0.3852 H   0  0
   -1.0575  -19.2305   -1.2618 H   0  0
    0.2259  -20.6642    1.1467 H   0  0
   -1.1961  -21.1972    0.2601 H   0  0
    2.4251  -20.7954   -0.0270 H   0  0
    2.4200  -21.3438   -1.6941 H   0  0
    1.2863  -19.2904   -2.4630 H   0  0
    2.6645  -18.7892   -1.5139 H   0  0
  1  2  2  0
  1  3  2  0
  1  6  1  0
  1 24  1  0
  4  5  2  0
  4  9  1  0
  4 31  1  0
  5  6  1  0
  5 30  1  0
  6  7  2  0
  7  8  1  0
  7 32  1  0
  8  9  2  0
  8 10  1  0
  9 33  1  0
 10 11  1  0
 10 34  1  0
 11 12  1  0
 11 13  2  0
 12 14  1  0
 12 17  2  0
 14 15  2  0
 14 35  1  0
 15 16  1  0
 16 17  1  0
 16 18  1  0
 17 36  1  0
 18 19  2  0
 18 23  1  0
 19 20  1  0
 19 37  1  0
 20 21  2  0
 20 38  1  0
 21 22  1  0
 21 39  1  0
 22 23  2  0
 22 40  1  0
 23 41  1  0
 24 25  1  0
 24 29  1  0
 25 26  1  0
 25 42  1  0
 25 43  1  0
 26 27  1  0
 26 44  1  0
 26 45  1  0
 27 28  1  0
 28 29  1  0
 28 46  1  0
 28 47  1  0
 29 48  1  0
 29 49  1  0
M  END
> <Name>
ligand_205

> <activity>
1

$$$$
ligand_206
  SciTegic10272118463D

 68 69  0  0  1  0            999 V2000
   30.7674   -9.8737    3.3460 C   0  0
   31.7107   -8.9532    4.1632 C   0  0
   30.7308  -11.2462    4.0789 C   0  0
   19.5070   -8.9454    0.5739 C   0  0
   20.0062  -10.1201   -0.0028 C   0  0
   21.3442  -10.4930    0.1510 C   0  0
   22.2206   -9.6798    0.8840 C   0  0
   21.7295   -8.4866    1.4369 C   0  0
   20.3950   -8.1120    1.2787 C   0  0
   21.8270  -11.7946   -0.4824 C   0  0
   21.7940  -12.9756    0.4978 C   0  0
   18.0698   -8.5999    0.3345 C   0  0
   17.2493   -8.0994    1.5317 C   0  0
   20.0076   -6.9090    1.8144 O   0  0
   23.5314  -10.1041    1.0160 O   0  0
   24.4563   -9.3270    1.7709 C   0  0
   25.8148  -10.0428    1.7672 C   0  0
   26.8941   -9.2883    2.5640 C   0  0
   28.2558  -10.0054    2.5554 C   0  0
   29.3374   -9.2467    3.3587 C   0  0
   31.3028   -9.9889    1.8961 C   0  0
   31.6851  -11.1179    1.3346 N   0  0
   32.0781  -10.7858    0.0603 N   0  0
   31.9103   -9.4352   -0.0867 N   0  0
   31.4155   -8.9460    1.0983 N   0  5
   17.4724   -8.8744   -0.7072 O   0  0
   16.6660   -6.6892    1.3134 C   0  0
   15.8525   -6.1993    2.5232 C   0  0
   15.2650   -4.7911    2.3210 C   0  0
   14.4521   -4.3010    3.5321 C   0  0
   13.8664   -2.8968    3.3301 C   0  0
   31.7570   -7.9460    3.7465 H   0  0
   31.3827   -8.8557    5.1991 H   0  0
   32.7302   -9.3415    4.1804 H   0  0
   30.1200  -11.9783    3.5504 H   0  0
   31.7294  -11.6758    4.1725 H   0  0
   30.3250  -11.1541    5.0872 H   0  0
   19.3492  -10.7654   -0.5708 H   0  0
   22.3830   -7.8303    1.9906 H   0  0
   21.2169  -12.0255   -1.3572 H   0  0
   22.8382  -11.6605   -0.8696 H   0  0
   22.1404  -13.8903    0.0162 H   0  0
   22.4365  -12.7927    1.3599 H   0  0
   20.7835  -13.1571    0.8656 H   0  0
   16.4362   -8.8065    1.6980 H   0  0
   17.8555   -8.1242    2.4371 H   0  0
   20.7247   -6.4471    2.2535 H   0  0
   24.1017   -9.2108    2.7968 H   0  0
   24.5597   -8.3329    1.3318 H   0  0
   26.1479  -10.1737    0.7364 H   0  0
   25.6925  -11.0458    2.1788 H   0  0
   26.5600   -9.1590    3.5947 H   0  0
   27.0124   -8.2846    2.1523 H   0  0
   28.5836  -10.1318    1.5226 H   0  0
   28.1295  -11.0095    2.9605 H   0  0
   28.9966   -9.1445    4.3906 H   0  0
   29.3935   -8.2261    2.9753 H   0  0
   17.4723   -5.9815    1.1125 H   0  0
   16.0298   -6.6855    0.4261 H   0  0
   15.0438   -6.9039    2.7243 H   0  0
   16.4882   -6.2022    3.4102 H   0  0
   16.0740   -4.0870    2.1197 H   0  0
   14.6296   -4.7880    1.4338 H   0  0
   13.6399   -5.0004    3.7357 H   0  0
   15.0841   -4.2995    4.4214 H   0  0
   13.2981   -2.5824    4.2059 H   0  0
   14.6529   -2.1597    3.1645 H   0  0
   13.1942   -2.8678    2.4719 H   0  0
  1  2  1  0
  1  3  1  0
  1 20  1  0
  1 21  1  0
  2 32  1  0
  2 33  1  0
  2 34  1  0
  3 35  1  0
  3 36  1  0
  3 37  1  0
  4  5  2  0
  4  9  1  0
  4 12  1  0
  5  6  1  0
  5 38  1  0
  6  7  2  0
  6 10  1  0
  7  8  1  0
  7 15  1  0
  8  9  2  0
  8 39  1  0
  9 14  1  0
 10 11  1  0
 10 40  1  0
 10 41  1  0
 11 42  1  0
 11 43  1  0
 11 44  1  0
 12 13  1  0
 12 26  2  0
 13 27  1  0
 13 45  1  0
 13 46  1  0
 14 47  1  0
 15 16  1  0
 16 17  1  0
 16 48  1  0
 16 49  1  0
 17 18  1  0
 17 50  1  0
 17 51  1  0
 18 19  1  0
 18 52  1  0
 18 53  1  0
 19 20  1  0
 19 54  1  0
 19 55  1  0
 20 56  1  0
 20 57  1  0
 21 22  2  0
 21 25  1  0
 22 23  1  0
 23 24  2  0
 24 25  1  0
 27 28  1  0
 27 58  1  0
 27 59  1  0
 28 29  1  0
 28 60  1  0
 28 61  1  0
 29 30  1  0
 29 62  1  0
 29 63  1  0
 30 31  1  0
 30 64  1  0
 30 65  1  0
 31 66  1  0
 31 67  1  0
 31 68  1  0
M  CHG  1  25  -1
M  END
> <Name>
ligand_206

> <activity>
1

$$$$
ligand_207
  SciTegic10272118463D

 56 57  0  0  1  0            999 V2000
   24.7562   -1.2961    4.4216 C   0  0
   25.2593   -0.0931    5.2611 C   0  0
   24.9923   -2.5737    5.2784 C   0  0
   14.2812   -3.8837    0.0717 C   0  0
   15.1766   -4.8911   -0.3095 C   0  0
   16.5231   -4.8444    0.0613 C   0  0
   17.0063   -3.7680    0.8195 C   0  0
   16.1172   -2.7419    1.1762 C   0  0
   14.7742   -2.7863    0.8012 C   0  0
   17.4478   -5.9810   -0.3648 C   0  0
   17.5945   -7.0596    0.7176 C   0  0
   12.8623   -3.9901   -0.3945 C   0  0
   11.7544   -3.6938    0.6261 C   0  0
   13.9829   -1.7214    1.1534 O   0  0
   18.3451   -3.7796    1.1704 O   0  0
   18.8809   -2.7223    1.9604 C   0  0
   20.3686   -3.0058    2.2135 C   0  0
   21.0505   -1.9223    3.0680 C   0  0
   22.5425   -2.2063    3.3164 C   0  0
   23.2243   -1.1178    4.1772 C   0  0
   25.5255   -1.3326    3.0766 C   0  0
   26.2939   -2.3302    2.6891 N   0  0
   26.7746   -1.9716    1.4526 N   0  0
   26.2592   -0.7405    1.1484 N   0  0
   25.4653   -0.3504    2.2000 N   0  5
   12.5414   -4.4827   -1.4770 O   0  0
   10.8318   -2.5439    0.1879 C   0  0
   25.0851    0.8572    4.7543 H   0  0
   24.7569   -0.0365    6.2278 H   0  0
   26.3307   -0.1626    5.4552 H   0  0
   24.7047   -3.4825    4.7493 H   0  0
   26.0434   -2.6845    5.5492 H   0  0
   24.4223   -2.5467    6.2081 H   0  0
   14.8272   -5.7329   -0.8926 H   0  0
   16.4623   -1.8912    1.7433 H   0  0
   17.0745   -6.4322   -1.2855 H   0  0
   18.4281   -5.5780   -0.6238 H   0  0
   18.2569   -7.8584    0.3832 H   0  0
   18.0139   -6.6453    1.6352 H   0  0
   16.6313   -7.5087    0.9624 H   0  0
   11.1640   -4.6016    0.7516 H   0  0
   12.1879   -3.4800    1.6028 H   0  0
   14.4611   -1.0436    1.6354 H   0  0
   18.3494   -2.6560    2.9117 H   0  0
   18.7682   -1.7691    1.4404 H   0  0
   20.8846   -3.0927    1.2560 H   0  0
   20.4703   -3.9748    2.7047 H   0  0
   20.5342   -1.8374    4.0256 H   0  0
   20.9446   -0.9539    2.5762 H   0  0
   23.0523   -2.2905    2.3556 H   0  0
   22.6418   -3.1779    3.8006 H   0  0
   22.7091   -1.0606    5.1377 H   0  0
   23.0503   -0.1499    3.7031 H   0  0
   10.0542   -2.3725    0.9324 H   0  0
   11.3813   -1.6092    0.0684 H   0  0
   10.3349   -2.7643   -0.7580 H   0  0
  1  2  1  0
  1  3  1  0
  1 20  1  0
  1 21  1  0
  2 28  1  0
  2 29  1  0
  2 30  1  0
  3 31  1  0
  3 32  1  0
  3 33  1  0
  4  5  2  0
  4  9  1  0
  4 12  1  0
  5  6  1  0
  5 34  1  0
  6  7  2  0
  6 10  1  0
  7  8  1  0
  7 15  1  0
  8  9  2  0
  8 35  1  0
  9 14  1  0
 10 11  1  0
 10 36  1  0
 10 37  1  0
 11 38  1  0
 11 39  1  0
 11 40  1  0
 12 13  1  0
 12 26  2  0
 13 27  1  0
 13 41  1  0
 13 42  1  0
 14 43  1  0
 15 16  1  0
 16 17  1  0
 16 44  1  0
 16 45  1  0
 17 18  1  0
 17 46  1  0
 17 47  1  0
 18 19  1  0
 18 48  1  0
 18 49  1  0
 19 20  1  0
 19 50  1  0
 19 51  1  0
 20 52  1  0
 20 53  1  0
 21 22  2  0
 21 25  1  0
 22 23  1  0
 23 24  2  0
 24 25  1  0
 27 54  1  0
 27 55  1  0
 27 56  1  0
M  CHG  1  25  -1
M  END
> <Name>
ligand_207

> <activity>
1

$$$$
ligand_208
  SciTegic10272118463D

 51 53  0  0  1  0            999 V2000
   -0.2848    0.2929   -0.0953 C   0  0
   -0.1384    1.6515   -0.3641 C   0  0
   -1.2565    2.4744   -0.4331 C   0  0
   -2.5359    1.9512   -0.2446 C   0  0
   -2.7253    0.5734    0.0141 C   0  0
   -1.5734   -0.2362    0.0775 C   0  0
   -3.5787    2.8369   -0.3288 O   0  0
    0.8936   -0.4732   -0.0549 N   0  0
    1.1100   -1.6429    0.5825 C   0  0
    0.2999   -2.2485    1.2844 O   0  0
    2.4942   -2.1953    0.3834 C   0  0
    2.7639   -3.0781   -0.6797 C   0  0
    4.0502   -3.5892   -0.8532 C   0  0
    5.0857   -3.2429    0.0139 C   0  0
    4.8173   -2.3659    1.0710 C   0  0
    3.5374   -1.8437    1.2612 C   0  0
    6.3536   -3.7988   -0.2254 N   0  0
    1.5431   -3.5686   -1.8104 Cl  0  0
   -4.1463   -0.0411    0.2192 C   0  0
   -4.8445    0.6044    1.4440 C   0  0
   -5.0129    0.1597   -1.0507 C   0  0
   -4.1230   -1.5723    0.4915 C   0  0
    3.2999   -0.7628    2.5972 Cl  0  0
    7.5339   -3.4028    0.5358 C   0  0
    8.7411   -4.2782    0.2658 C   0  0
   10.0748   -3.8950    0.1178 C   0  0
   10.9631   -4.9519   -0.1003 C   0  0
   10.3298   -6.1801   -0.1093 C   0  0
    8.6279   -6.0201    0.1575 S   0  0
    0.8419    2.0813   -0.5140 H   0  0
   -1.1216    3.5271   -0.6354 H   0  0
   -1.6686   -1.2949    0.2460 H   0  0
   -3.2912    3.7343   -0.5091 H   0  0
    1.6873   -0.0642   -0.5248 H   0  0
    4.2400   -4.2661   -1.6742 H   0  0
    5.5971   -2.0748    1.7581 H   0  0
    6.5087   -4.2438   -1.1187 H   0  0
   -5.8079    0.1355    1.6493 H   0  0
   -4.2379    0.5022    2.3450 H   0  0
   -5.0473    1.6654    1.3096 H   0  0
   -5.9841   -0.3280   -0.9543 H   0  0
   -5.2200    1.2068   -1.2646 H   0  0
   -4.5272   -0.2610   -1.9324 H   0  0
   -5.1282   -1.9717    0.6360 H   0  0
   -3.6858   -2.1275   -0.3398 H   0  0
   -3.5591   -1.8171    1.3930 H   0  0
    7.7592   -2.3591    0.3119 H   0  0
    7.3015   -3.4394    1.6005 H   0  0
   10.3952   -2.8645    0.1637 H   0  0
   12.0263   -4.8236   -0.2414 H   0  0
   10.7738   -7.1543   -0.2518 H   0  0
  1  2  2  0
  1  6  1  0
  1  8  1  0
  2  3  1  0
  2 30  1  0
  3  4  2  0
  3 31  1  0
  4  5  1  0
  4  7  1  0
  5  6  2  0
  5 19  1  0
  6 32  1  0
  7 33  1  0
  8  9  1  0
  8 34  1  0
  9 10  2  0
  9 11  1  0
 11 12  2  0
 11 16  1  0
 12 13  1  0
 12 18  1  0
 13 14  2  0
 13 35  1  0
 14 15  1  0
 14 17  1  0
 15 16  2  0
 15 36  1  0
 16 23  1  0
 17 24  1  0
 17 37  1  0
 19 20  1  0
 19 21  1  0
 19 22  1  0
 20 38  1  0
 20 39  1  0
 20 40  1  0
 21 41  1  0
 21 42  1  0
 21 43  1  0
 22 44  1  0
 22 45  1  0
 22 46  1  0
 24 25  1  0
 24 47  1  0
 24 48  1  0
 25 26  2  0
 25 29  1  0
 26 27  1  0
 26 49  1  0
 27 28  2  0
 27 50  1  0
 28 29  1  0
 28 51  1  0
M  END
> <Name>
ligand_208

> <activity>
1

$$$$
ligand_209
  SciTegic10272118463D

 59 60  0  0  1  0            999 V2000
   37.2695   -9.5929    0.5572 C   0  0
   38.5548   -9.7024    1.4182 C   0  0
   36.4871  -10.9251    0.7458 C   0  0
   28.3425   -2.1398    0.8577 C   0  0
   28.1364   -3.0294   -0.2043 C   0  0
   29.0581   -4.0385   -0.4959 C   0  0
   30.2241   -4.1687    0.2724 C   0  0
   30.4478   -3.2586    1.3176 C   0  0
   29.5298   -2.2484    1.6048 C   0  0
   28.7701   -4.9922   -1.6517 C   0  0
   28.0898   -6.2890   -1.1910 C   0  0
   27.3232   -1.0656    1.0833 C   0  0
   26.8484   -0.8316    2.5343 C   0  0
   29.8470   -1.3759    2.6153 O   0  0
   31.0955   -5.1940   -0.0515 O   0  0
   32.2826   -5.3839    0.7124 C   0  0
   33.0385   -6.5959    0.1492 C   0  0
   34.3431   -6.8966    0.9084 C   0  0
   35.1009   -8.1097    0.3402 C   0  0
   36.4103   -8.4102    1.1057 C   0  0
   37.6665   -9.3418   -0.9199 C   0  0
   37.3532  -10.1429   -1.9178 N   0  0
   37.8782   -9.5570   -3.0447 N   0  0
   38.4992   -8.3997   -2.6594 N   0  0
   38.3520   -8.2818   -1.2981 N   0  5
   26.7110   -0.5208    0.1616 O   0  0
   27.1734    0.6028    3.0000 C   0  0
   25.3441   -1.1366    2.6959 C   0  0
   39.1444   -8.7850    1.3869 H   0  0
   38.3237   -9.8979    2.4663 H   0  0
   39.1995  -10.5114    1.0712 H   0  0
   35.5788  -10.9579    0.1438 H   0  0
   37.0902  -11.7868    0.4557 H   0  0
   36.1914  -11.0752    1.7851 H   0  0
   27.2432   -2.9510   -0.8099 H   0  0
   31.3440   -3.3204    1.9156 H   0  0
   28.1448   -4.4922   -2.3931 H   0  0
   29.6989   -5.2247   -2.1748 H   0  0
   27.8940   -6.9473   -2.0377 H   0  0
   28.7168   -6.8359   -0.4857 H   0  0
   27.1363   -6.0844   -0.7029 H   0  0
   27.3830   -1.5256    3.1827 H   0  0
   30.6938   -1.5716    3.0219 H   0  0
   32.0324   -5.5578    1.7608 H   0  0
   32.9131   -4.4944    0.6561 H   0  0
   33.2622   -6.4206   -0.9043 H   0  0
   32.3875   -7.4710    0.1821 H   0  0
   34.1176   -7.0721    1.9616 H   0  0
   34.9910   -6.0191    0.8762 H   0  0
   35.3222   -7.9287   -0.7126 H   0  0
   34.4464   -8.9809    0.3687 H   0  0
   36.1664   -8.5961    2.1533 H   0  0
   37.0168   -7.5025    1.1117 H   0  0
   26.8900    0.7467    4.0432 H   0  0
   28.2391    0.8228    2.9252 H   0  0
   26.6399    1.3507    2.4111 H   0  0
   25.0342   -1.0273    3.7357 H   0  0
   24.7244   -0.4651    2.0993 H   0  0
   25.1092   -2.1594    2.3972 H   0  0
  1  2  1  0
  1  3  1  0
  1 20  1  0
  1 21  1  0
  2 29  1  0
  2 30  1  0
  2 31  1  0
  3 32  1  0
  3 33  1  0
  3 34  1  0
  4  5  2  0
  4  9  1  0
  4 12  1  0
  5  6  1  0
  5 35  1  0
  6  7  2  0
  6 10  1  0
  7  8  1  0
  7 15  1  0
  8  9  2  0
  8 36  1  0
  9 14  1  0
 10 11  1  0
 10 37  1  0
 10 38  1  0
 11 39  1  0
 11 40  1  0
 11 41  1  0
 12 13  1  0
 12 26  2  0
 13 27  1  0
 13 28  1  0
 13 42  1  0
 14 43  1  0
 15 16  1  0
 16 17  1  0
 16 44  1  0
 16 45  1  0
 17 18  1  0
 17 46  1  0
 17 47  1  0
 18 19  1  0
 18 48  1  0
 18 49  1  0
 19 20  1  0
 19 50  1  0
 19 51  1  0
 20 52  1  0
 20 53  1  0
 21 22  2  0
 21 25  1  0
 22 23  1  0
 23 24  2  0
 24 25  1  0
 27 54  1  0
 27 55  1  0
 27 56  1  0
 28 57  1  0
 28 58  1  0
 28 59  1  0
M  CHG  1  25  -1
M  END
> <Name>
ligand_209

> <activity>
1

$$$$
ligand_210
  SciTegic10272118463D

 60 61  0  0  1  0            999 V2000
   24.8659  -28.8616   -1.5603 C   0  0
   26.2642  -28.2310   -1.3320 C   0  0
   24.9309  -30.3146   -1.0066 C   0  0
   14.2934  -25.8721    2.2413 C   0  0
   14.1585  -27.0106    1.4436 C   0  0
   15.2708  -27.5943    0.8302 C   0  0
   16.5480  -27.0419    1.0170 C   0  0
   16.6789  -25.8974    1.8215 C   0  0
   15.5659  -25.3165    2.4291 C   0  0
   15.0738  -28.8394   -0.0298 C   0  0
   15.3299  -30.1429    0.7483 C   0  0
   13.0530  -25.2690    2.8945 C   0  0
   12.8130  -25.8062    4.3123 C   0  0
   15.7467  -24.2038    3.2105 O   0  0
   17.6142  -27.6681    0.3951 O   0  0
   18.9346  -27.1647    0.5733 C   0  0
   19.9081  -28.0576   -0.2095 C   0  0
   21.3739  -27.6058   -0.0818 C   0  0
   22.3472  -28.5001   -0.8701 C   0  0
   23.8191  -28.0453   -0.7380 C   0  0
   24.5308  -28.8169   -3.0729 C   0  0
   24.3205  -29.8835   -3.8172 N   0  0
   24.0521  -29.4101   -5.0791 N   0  0
   24.1176  -28.0436   -5.0320 N   0  0
   24.4260  -27.6862   -3.7414 N   0  5
   15.1388  -31.4024   -0.1142 C   0  0
   15.3964  -32.7018    0.6608 C   0  0
   26.2956  -27.1871   -1.6473 H   0  0
   26.5520  -28.2559   -0.2799 H   0  0
   27.0365  -28.7599   -1.8927 H   0  0
   23.9975  -30.8560   -1.1620 H   0  0
   25.7171  -30.8932   -1.4943 H   0  0
   25.1387  -30.3292    0.0641 H   0  0
   13.1802  -27.4476    1.3009 H   0  0
   17.6458  -25.4477    1.9863 H   0  0
   14.0620  -28.8419   -0.4389 H   0  0
   15.7309  -28.7844   -0.8993 H   0  0
   16.3447  -30.1316    1.1500 H   0  0
   14.6612  -30.1879    1.6095 H   0  0
   13.1410  -24.1819    2.9176 H   0  0
   12.1796  -25.4703    2.2722 H   0  0
   11.9195  -25.3612    4.7506 H   0  0
   12.6763  -26.8882    4.3080 H   0  0
   13.6528  -25.5773    4.9694 H   0  0
   16.6636  -23.9259    3.2587 H   0  0
   19.1992  -27.1679    1.6325 H   0  0
   18.9986  -26.1374    0.2096 H   0  0
   19.6197  -28.0653   -1.2618 H   0  0
   19.8119  -29.0862    0.1414 H   0  0
   21.6609  -27.5991    0.9710 H   0  0
   21.4668  -26.5760   -0.4310 H   0  0
   22.0545  -28.5030   -1.9210 H   0  0
   22.2441  -29.5279   -0.5219 H   0  0
   24.0953  -28.0633    0.3179 H   0  0
   23.8788  -26.9950   -1.0296 H   0  0
   14.1248  -31.4213   -0.5162 H   0  0
   15.8082  -31.3617   -0.9748 H   0  0
   15.2526  -33.5722    0.0201 H   0  0
   16.4168  -32.7384    1.0440 H   0  0
   14.7167  -32.7990    1.5081 H   0  0
  1  2  1  0
  1  3  1  0
  1 20  1  0
  1 21  1  0
  2 28  1  0
  2 29  1  0
  2 30  1  0
  3 31  1  0
  3 32  1  0
  3 33  1  0
  4  5  2  0
  4  9  1  0
  4 12  1  0
  5  6  1  0
  5 34  1  0
  6  7  2  0
  6 10  1  0
  7  8  1  0
  7 15  1  0
  8  9  2  0
  8 35  1  0
  9 14  1  0
 10 11  1  0
 10 36  1  0
 10 37  1  0
 11 26  1  0
 11 38  1  0
 11 39  1  0
 12 13  1  0
 12 40  1  0
 12 41  1  0
 13 42  1  0
 13 43  1  0
 13 44  1  0
 14 45  1  0
 15 16  1  0
 16 17  1  0
 16 46  1  0
 16 47  1  0
 17 18  1  0
 17 48  1  0
 17 49  1  0
 18 19  1  0
 18 50  1  0
 18 51  1  0
 19 20  1  0
 19 52  1  0
 19 53  1  0
 20 54  1  0
 20 55  1  0
 21 22  2  0
 21 25  1  0
 22 23  1  0
 23 24  2  0
 24 25  1  0
 26 27  1  0
 26 56  1  0
 26 57  1  0
 27 58  1  0
 27 59  1  0
 27 60  1  0
M  CHG  1  25  -1
M  END
> <Name>
ligand_210

> <activity>
1

$$$$
ligand_211
  SciTegic10272118463D

 54 57  0  0  1  0            999 V2000
    5.0454   -1.4157    0.7704 C   0  0
    9.8949    4.7925    3.7754 N   0  0
    6.3592   -1.1196    1.2513 C   0  0
    8.7682    4.1021    3.6776 C   0  0
    4.9212   -2.6033   -0.0122 C   0  0
    3.8852   -0.6276    1.0099 C   0  0
    2.5343   -2.1858   -0.2589 C   0  0
    9.7179    6.0743    3.9866 C   0  0
    7.4207   -1.9174    0.9738 N   0  0
    8.0531    6.5420    4.0863 S   0  0
    7.6195    4.8831    3.8222 C   0  0
    3.6573   -2.9669   -0.5225 C   0  0
    6.5791    0.0416    2.0183 N   0  0
    2.6366   -1.0073    0.4926 C   0  0
    8.8014    2.6216    3.4357 C   0  0
    5.9895   -3.4027   -0.2850 N   0  0
    7.1818   -3.0153    0.2235 C   0  0
    1.3305   -2.5863   -0.7915 O   0  0
    7.7229    0.6102    2.6082 C   0  0
    7.7061    1.9840    2.8465 C   0  0
    1.4773   -0.2734    0.6728 O   0  0
    0.3815   -3.1268    0.1296 C   0  0
    9.9168    1.8564    3.7907 C   0  0
   10.8637    7.0473    4.1293 C   0  0
    9.9417    0.4850    3.5725 C   0  0
    8.8446   -0.1333    2.9865 C   0  0
    1.5065    0.9208    1.4479 C   0  0
   -1.0009   -3.0048   -0.5254 C   0  0
    0.7317   -4.5890    0.4603 C   0  0
    0.0913    1.5032    1.4967 C   0  0
    3.9866    0.2722    1.5961 H   0  0
    6.5842    4.5783    3.7921 H   0  0
    3.5641   -3.8651   -1.1160 H   0  0
    5.7794    0.6555    2.0274 H   0  0
    8.0304   -3.6480    0.0062 H   0  0
    6.8391    2.5616    2.5595 H   0  0
    0.3605   -2.5505    1.0569 H   0  0
   10.7752    2.3245    4.2506 H   0  0
   10.8209    7.8265    3.3684 H   0  0
   10.8457    7.5433    5.0997 H   0  0
   11.8366    6.5632    4.0361 H   0  0
   10.8043   -0.0970    3.8617 H   0  0
    8.8802   -1.2026    2.8506 H   0  0
    1.8506    0.7096    2.4620 H   0  0
    2.1880    1.6479    1.0030 H   0  0
   -1.7842   -3.3893    0.1286 H   0  0
   -1.2368   -1.9628   -0.7438 H   0  0
   -1.0471   -3.5588   -1.4637 H   0  0
   -0.0144   -5.0335    1.1197 H   0  0
    0.7837   -5.1977   -0.4430 H   0  0
    1.6953   -4.6613    0.9648 H   0  0
    0.0666    2.4217    2.0833 H   0  0
   -0.2715    1.7368    0.4953 H   0  0
   -0.6072    0.7989    1.9496 H   0  0
  1  3  1  0
  1  5  1  0
  1  6  2  0
  2  4  1  0
  2  8  2  0
  3  9  2  0
  3 13  1  0
  4 11  2  0
  4 15  1  0
  5 12  2  0
  5 16  1  0
  6 14  1  0
  6 31  1  0
  7 12  1  0
  7 14  2  0
  7 18  1  0
  8 10  1  0
  8 24  1  0
  9 17  1  0
 10 11  1  0
 11 32  1  0
 12 33  1  0
 13 19  1  0
 13 34  1  0
 14 21  1  0
 15 20  1  0
 15 23  2  0
 16 17  2  0
 17 35  1  0
 18 22  1  0
 19 20  2  0
 19 26  1  0
 20 36  1  0
 21 27  1  0
 22 28  1  0
 22 29  1  0
 22 37  1  0
 23 25  1  0
 23 38  1  0
 24 39  1  0
 24 40  1  0
 24 41  1  0
 25 26  2  0
 25 42  1  0
 26 43  1  0
 27 30  1  0
 27 44  1  0
 27 45  1  0
 28 46  1  0
 28 47  1  0
 28 48  1  0
 29 49  1  0
 29 50  1  0
 29 51  1  0
 30 52  1  0
 30 53  1  0
 30 54  1  0
M  END
> <Name>
ligand_211

> <activity>
1

$$$$
ligand_212
  SciTegic10272118463D

 56 57  0  0  1  0            999 V2000
    6.2824    0.6502   -0.1205 C   0  0  2  0  0  0
    6.9332   -0.6835    0.3135 C   0  0
    8.1888   -0.9182    0.2397 N   0  0
    9.0638    0.0286   -0.2082 C   0  0
    8.6861    1.1459   -0.9022 C   0  0
    7.1856    1.4153   -1.1649 C   0  0  1  0  0  0
    6.7379    1.1138   -2.6027 C   0  0
    5.8999    2.0083   -3.2714 C   0  0
    5.4671    1.7437   -4.5759 C   0  0
    5.8871    0.5608   -5.1962 C   0  0
    6.7130   -0.3412   -4.5374 C   0  0
    7.1315   -0.0633   -3.2434 C   0  0
    5.9846    1.5546    1.1018 C   0  0
    6.5368    1.4255    2.1993 O   0  0
    5.0598    2.4977    0.7996 O   0  0
    4.6217    3.4592    1.7584 C   0  0
    6.0434   -1.7968    0.8371 C   0  0
   10.4838   -0.3508    0.2129 C   0  0
    9.6282    2.1130   -1.5097 C   0  0
   10.8065    1.5684   -1.8937 O   0  0
    9.3250    3.2912   -1.7154 O   0  0
   11.8074    2.3510   -2.5342 C   0  0
    4.5796    2.6973   -5.2864 N   0  3
    4.2107    3.7089   -4.6961 O   0  0
    4.2445    2.4408   -6.4396 O   0  5
    4.0933    4.6754    0.9840 C   0  0
    3.5464    2.8548    2.6813 C   0  0
   13.0477    1.4889   -2.8011 C   0  0
   12.7220    0.4687   -3.7359 O   0  0
   13.8073   -0.3978   -4.0288 C   0  0
    5.3130    0.4236   -0.5659 H   0  0
    7.0150    2.4893   -1.0466 H   0  0
    5.5852    2.9133   -2.7709 H   0  0
    5.5704    0.3279   -6.2028 H   0  0
    7.0257   -1.2519   -5.0268 H   0  0
    7.7695   -0.7725   -2.7367 H   0  0
    5.4690    3.7896    2.3630 H   0  0
    6.6080   -2.6895    1.1123 H   0  0
    5.4974   -1.4699    1.7221 H   0  0
    5.3122   -2.0903    0.0839 H   0  0
   11.1042    0.5293    0.3799 H   0  0
   10.5027   -0.9148    1.1477 H   0  0
   10.9526   -0.9625   -0.5585 H   0  0
   11.4189    2.7482   -3.4734 H   0  0
   12.0741    3.2016   -1.9049 H   0  0
    3.7629    5.4612    1.6639 H   0  0
    4.8685    5.1003    0.3453 H   0  0
    3.2483    4.4088    0.3477 H   0  0
    3.1881    3.5916    3.4007 H   0  0
    2.6866    2.4999    2.1119 H   0  0
    3.9392    2.0111    3.2494 H   0  0
   13.8501    2.1157   -3.1938 H   0  0
   13.4014    1.0488   -1.8665 H   0  0
   13.4876   -1.1497   -4.7502 H   0  0
   14.6464    0.1471   -4.4641 H   0  0
   14.1532   -0.9191   -3.1348 H   0  0
  1  2  1  0
  1  6  1  0
  1 13  1  0
  1 31  1  0
  2  3  2  0
  2 17  1  0
  3  4  1  0
  4  5  2  0
  4 18  1  0
  5  6  1  0
  5 19  1  0
  6  7  1  0
  6 32  1  0
  7  8  2  0
  7 12  1  0
  8  9  1  0
  8 33  1  0
  9 10  2  0
  9 23  1  0
 10 11  1  0
 10 34  1  0
 11 12  2  0
 11 35  1  0
 12 36  1  0
 13 14  2  0
 13 15  1  0
 15 16  1  0
 16 26  1  0
 16 27  1  0
 16 37  1  0
 17 38  1  0
 17 39  1  0
 17 40  1  0
 18 41  1  0
 18 42  1  0
 18 43  1  0
 19 20  1  0
 19 21  2  0
 20 22  1  0
 22 28  1  0
 22 44  1  0
 22 45  1  0
 23 24  2  0
 23 25  1  0
 26 46  1  0
 26 47  1  0
 26 48  1  0
 27 49  1  0
 27 50  1  0
 27 51  1  0
 28 29  1  0
 28 52  1  0
 28 53  1  0
 29 30  1  0
 30 54  1  0
 30 55  1  0
 30 56  1  0
M  CHG  2  23   1  25  -1
M  END
> <Name>
ligand_212

> <activity>
1

$$$$
ligand_213
  SciTegic10272118463D

 66 67  0  0  1  0            999 V2000
   -6.2425   -5.0942   -0.2687 C   0  0
   -6.5838   -6.0178    0.7211 C   0  0
   -5.6058   -6.5107    1.5867 C   0  0
   -4.9207   -4.6561   -0.4044 C   0  0
   -3.9406   -5.1611    0.4602 C   0  0
   -4.2837   -6.0792    1.4603 C   0  0
   -3.2305   -6.5703    2.3389 C   0  0
   -1.9469   -6.2732    2.0999 C   0  0
   -1.5318   -5.4364    0.8818 C   0  0  1  0  0  0
   -2.6429   -4.6866    0.3195 O   0  0
   -7.8817   -6.4377    0.8416 O   0  0
   -4.5612   -3.6465   -1.4832 C   0  0
   -0.5199   -4.3794    1.3619 C   0  0
   -1.0212   -6.4130   -0.2082 C   0  0
   -0.5897   -5.7420   -1.5272 C   0  0
   -0.1955   -6.7404   -2.6028 C   0  0
   -0.9752   -7.2314   -3.5906 C   0  0
   -2.4472   -6.8795   -3.7737 C   0  0
   -0.4140   -8.2038   -4.6219 C   0  0
   -0.8765   -9.6595   -4.4330 C   0  0
   -0.2562  -10.6199   -5.4391 C   0  0
    0.7564  -11.5022   -5.2522 C   0  0
    1.2044  -12.4218   -6.3910 C   0  0
    1.5219  -11.6434   -3.9015 C   0  0
    1.8153  -10.5677   -3.3321 O   0  0
    1.7999  -12.8199   -3.5777 O   0  5
    2.6495  -12.1880   -6.8716 C   0  0
    3.0574  -13.1034   -8.0152 C   0  0
    3.1444  -12.7963   -9.3274 C   0  0
    3.5967  -13.8259  -10.3491 C   0  0
    2.7949  -11.4399   -9.9240 C   0  0
   -7.0093   -4.7176   -0.9304 H   0  0
   -5.8721   -7.2245    2.3530 H   0  0
   -3.4817   -7.1733    3.1998 H   0  0
   -1.1916   -6.6730    2.7609 H   0  0
   -8.0079   -7.0724    1.5502 H   0  0
   -3.8052   -4.0591   -2.1518 H   0  0
   -5.4261   -3.3675   -2.0862 H   0  0
   -4.1587   -2.7392   -1.0320 H   0  0
   -0.2205   -3.7183    0.5484 H   0  0
   -0.9429   -3.7501    2.1462 H   0  0
    0.3853   -4.8417    1.7575 H   0  0
   -0.1844   -6.9947    0.1825 H   0  0
   -1.8078   -7.1366   -0.4322 H   0  0
   -1.3804   -5.0901   -1.8965 H   0  0
    0.2664   -5.0889   -1.3563 H   0  0
    0.8334   -7.0679   -2.5495 H   0  0
   -3.0533   -7.7838   -3.8191 H   0  0
   -2.8502   -6.2743   -2.9636 H   0  0
   -2.5883   -6.3304   -4.7048 H   0  0
   -0.6821   -7.8503   -5.6187 H   0  0
    0.6770   -8.1795   -4.5835 H   0  0
   -0.6671   -9.9834   -3.4134 H   0  0
   -1.9587   -9.7297   -4.5427 H   0  0
   -0.7180  -10.5770   -6.4152 H   0  0
    1.0842  -13.4577   -6.0693 H   0  0
    0.5308  -12.3045   -7.2421 H   0  0
    2.7829  -11.1420   -7.1444 H   0  0
    3.3493  -12.3632   -6.0536 H   0  0
    3.3124  -14.1070   -7.7051 H   0  0
    2.8150  -13.9945  -11.0904 H   0  0
    4.4908  -13.4773  -10.8669 H   0  0
    3.8313  -14.7863   -9.8877 H   0  0
    2.1004  -11.5642  -10.7554 H   0  0
    2.3218  -10.7629   -9.2150 H   0  0
    3.6943  -10.9552  -10.3046 H   0  0
  1  2  1  0
  1  4  2  0
  1 32  1  0
  2  3  2  0
  2 11  1  0
  3  6  1  0
  3 33  1  0
  4  5  1  0
  4 12  1  0
  5  6  2  0
  5 10  1  0
  6  7  1  0
  7  8  2  0
  7 34  1  0
  8  9  1  0
  8 35  1  0
  9 10  1  0
  9 13  1  0
  9 14  1  0
 11 36  1  0
 12 37  1  0
 12 38  1  0
 12 39  1  0
 13 40  1  0
 13 41  1  0
 13 42  1  0
 14 15  1  0
 14 43  1  0
 14 44  1  0
 15 16  1  0
 15 45  1  0
 15 46  1  0
 16 17  2  0
 16 47  1  0
 17 18  1  0
 17 19  1  0
 18 48  1  0
 18 49  1  0
 18 50  1  0
 19 20  1  0
 19 51  1  0
 19 52  1  0
 20 21  1  0
 20 53  1  0
 20 54  1  0
 21 22  2  0
 21 55  1  0
 22 23  1  0
 22 24  1  0
 23 27  1  0
 23 56  1  0
 23 57  1  0
 24 25  2  0
 24 26  1  0
 27 28  1  0
 27 58  1  0
 27 59  1  0
 28 29  2  0
 28 60  1  0
 29 30  1  0
 29 31  1  0
 30 61  1  0
 30 62  1  0
 30 63  1  0
 31 64  1  0
 31 65  1  0
 31 66  1  0
M  CHG  1  26  -1
M  END
> <Name>
ligand_213

> <activity>
1

$$$$
ligand_214
  SciTegic10272118463D

 73 77  0  0  1  0            999 V2000
   -6.3231    3.7567    0.1628 O   0  5
   -5.3022    4.2765   -0.3416 C   0  0
   -5.2860    5.3554   -0.9734 O   0  0
   -3.9497    3.5678   -0.1622 C   0  0
   -4.0876    2.0409    0.0445 C   0  0
   -2.7399    1.3359    0.0869 C   0  0
   -2.0724    1.1799    1.3033 C   0  0
   -0.8368    0.5396    1.3413 C   0  0
   -0.2652    0.0489    0.1641 C   0  0
   -0.9305    0.2150   -1.0533 C   0  0
   -2.1660    0.8553   -1.0917 C   0  0
    1.0575   -0.6339    0.2348 C   0  0
    2.1830   -0.0580    0.7638 N   0  3
    3.2328   -0.9569    0.7347 C   0  0
    4.5572   -0.8390    1.1626 C   0  0
    5.3755   -1.9578    1.0131 C   0  0
    4.8939   -3.1419    0.4632 C   0  0
    3.5729   -3.2622    0.0323 C   0  0
    2.7376   -2.1432    0.1680 C   0  0
    1.3833   -1.9276   -0.1479 N   0  0
    0.4368   -2.9070   -0.7343 C   0  0  1  0  0  0
    0.5572   -2.9648   -2.3004 C   0  0
   -0.6812   -3.6246   -2.9688 C   0  0
   -0.6169   -3.5878   -4.5080 C   0  0
    0.6898   -4.2050   -5.0372 C   0  0
    1.9237   -3.5310   -4.4112 C   0  0
    1.8788   -3.5521   -2.8696 C   0  0
    0.4051   -4.2537    0.0323 C   0  0
    0.5673   -5.3268   -0.5485 O   0  0
    0.2061   -4.1694    1.3610 N   0  0
    0.2470   -5.2831    2.3123 C   0  0
   -0.4287   -4.9263    3.6568 C   0  0
    0.4073   -3.9290    4.4889 C   0  0
    1.8453   -4.4382    4.7153 C   0  0
    2.5339   -4.8331    3.3936 C   0  0
    1.6756   -5.8242    2.5782 C   0  0
   -3.4422    4.0166    0.6924 H   0  0
   -3.3256    3.7709   -1.0342 H   0  0
   -4.6922    1.6002   -0.7510 H   0  0
   -4.6292    1.8286    0.9685 H   0  0
   -2.5088    1.5553    2.2177 H   0  0
   -0.3309    0.4211    2.2889 H   0  0
   -0.4938   -0.1360   -1.9748 H   0  0
   -2.6727    0.9828   -2.0375 H   0  0
    4.9393    0.0730    1.5978 H   0  0
    6.4056   -1.9068    1.3348 H   0  0
    5.5589   -3.9881    0.3694 H   0  0
    3.2226   -4.1942   -0.3858 H   0  0
   -0.5583   -2.5067   -0.5360 H   0  0
    0.5459   -1.9296   -2.6420 H   0  0
   -0.7741   -4.6635   -2.6518 H   0  0
   -1.5939   -3.1270   -2.6378 H   0  0
   -1.4745   -4.1143   -4.9289 H   0  0
   -0.6964   -2.5549   -4.8507 H   0  0
    0.7053   -5.2729   -4.8131 H   0  0
    0.7293   -4.1205   -6.1239 H   0  0
    2.8331   -4.0198   -4.7630 H   0  0
    1.9831   -2.4975   -4.7563 H   0  0
    2.7329   -2.9847   -2.5042 H   0  0
    2.0180   -4.5779   -2.5289 H   0  0
    0.0659   -3.2555    1.7649 H   0  0
   -0.3429   -6.0846    1.8606 H   0  0
   -1.4263   -4.5204    3.4821 H   0  0
   -0.5785   -5.8379    4.2376 H   0  0
    0.4404   -2.9652    3.9785 H   0  0
   -0.0776   -3.7462    5.4487 H   0  0
    2.4341   -3.6787    5.2310 H   0  0
    1.8194   -5.3039    5.3791 H   0  0
    2.7188   -3.9365    2.8003 H   0  0
    3.5131   -5.2677    3.5983 H   0  0
    1.6076   -6.7687    3.1203 H   0  0
    2.1763   -6.0607    1.6383 H   0  0
    2.1895    0.8888    1.1150 H   0  0
  1  2  1  0
  2  3  2  0
  2  4  1  0
  4  5  1  0
  4 37  1  0
  4 38  1  0
  5  6  1  0
  5 39  1  0
  5 40  1  0
  6  7  2  0
  6 11  1  0
  7  8  1  0
  7 41  1  0
  8  9  2  0
  8 42  1  0
  9 10  1  0
  9 12  1  0
 10 11  2  0
 10 43  1  0
 11 44  1  0
 12 13  2  0
 12 20  1  0
 13 14  1  0
 13 73  1  0
 14 15  2  0
 14 19  1  0
 15 16  1  0
 15 45  1  0
 16 17  2  0
 16 46  1  0
 17 18  1  0
 17 47  1  0
 18 19  2  0
 18 48  1  0
 19 20  1  0
 20 21  1  0
 21 22  1  0
 21 28  1  0
 21 49  1  0
 22 23  1  0
 22 27  1  0
 22 50  1  0
 23 24  1  0
 23 51  1  0
 23 52  1  0
 24 25  1  0
 24 53  1  0
 24 54  1  0
 25 26  1  0
 25 55  1  0
 25 56  1  0
 26 27  1  0
 26 57  1  0
 26 58  1  0
 27 59  1  0
 27 60  1  0
 28 29  2  0
 28 30  1  0
 30 31  1  0
 30 61  1  0
 31 32  1  0
 31 36  1  0
 31 62  1  0
 32 33  1  0
 32 63  1  0
 32 64  1  0
 33 34  1  0
 33 65  1  0
 33 66  1  0
 34 35  1  0
 34 67  1  0
 34 68  1  0
 35 36  1  0
 35 69  1  0
 35 70  1  0
 36 71  1  0
 36 72  1  0
M  CHG  2   1  -1  13   1
M  END
> <Name>
ligand_214

> <activity>
1

$$$$
ligand_215
  SciTegic10272118463D

 73 72  0  0  1  0            999 V2000
    1.7699   -7.0120    0.7843 C   0  0
    3.1347   -6.8838    1.4743 C   0  0
    4.3149   -6.9892    0.4925 C   0  0
    5.6840   -6.8608    1.1841 C   0  0
    6.8645   -6.9665    0.2022 C   0  0
    8.2336   -6.8383    0.8940 C   0  0
    9.4142   -6.9444   -0.0878 C   0  0
   10.7832   -6.8164    0.6041 C   0  0
   11.9639   -6.9234   -0.3776 C   0  0
   13.3329   -6.7959    0.3145 C   0  0
   14.5136   -6.9035   -0.6671 C   0  0
   15.8826   -6.7764    0.0250 C   0  0
   17.0633   -6.8845   -0.9566 C   0  0
   18.4313   -6.7588   -0.2650 C   0  0
   20.9649   -6.7623   -0.5737 C   0  0
   21.3608   -7.9349   -0.0246 O   0  0
   21.5875   -5.7002   -0.5541 O   0  0
   22.5974   -8.0722    0.6747 C   0  0  2  0  0  0
   23.7748   -8.2630   -0.3294 C   0  0
   25.1601   -8.1037    0.3158 C   0  0
   25.2868   -7.2870    1.2550 O   0  5
   26.0787   -8.8114   -0.1510 O   0  0
   22.5125   -9.1320    1.8204 C   0  0
   21.7297  -10.4578    1.5423 N   0  3
   22.0739  -11.4449    2.6873 C   0  0
   19.6033   -6.8725   -1.2585 C   0  0
   20.1934  -10.2509    1.5691 C   0  0
   22.1329  -11.1293    0.2097 C   0  0
    0.9586   -6.9328    1.5085 H   0  0
    1.6268   -6.2272    0.0406 H   0  0
    1.6699   -7.9736    0.2798 H   0  0
    3.1801   -5.9294    2.0009 H   0  0
    3.2227   -7.6583    2.2377 H   0  0
    4.2633   -7.9439   -0.0336 H   0  0
    4.2208   -6.2146   -0.2704 H   0  0
    5.7353   -5.9061    1.7101 H   0  0
    5.7777   -7.6353    1.9471 H   0  0
    6.8131   -7.9211   -0.3239 H   0  0
    6.7709   -6.1919   -0.5608 H   0  0
    8.2851   -5.8834    1.4198 H   0  0
    8.3270   -7.6126    1.6571 H   0  0
    9.3625   -7.8992   -0.6137 H   0  0
    9.3208   -6.1700   -0.8509 H   0  0
   10.8350   -5.8614    1.1295 H   0  0
   10.8763   -7.5906    1.3675 H   0  0
   11.9118   -7.8783   -0.9032 H   0  0
   11.8709   -6.1491   -1.1409 H   0  0
   13.3850   -5.8408    0.8397 H   0  0
   13.4255   -7.5699    1.0781 H   0  0
   14.4611   -7.8584   -1.1926 H   0  0
   14.4210   -6.1293   -1.4305 H   0  0
   15.9349   -5.8213    0.5502 H   0  0
   15.9747   -7.5504    0.7888 H   0  0
   17.0102   -7.8393   -1.4823 H   0  0
   16.9715   -6.1100   -1.7199 H   0  0
   18.4838   -5.8021    0.2586 H   0  0
   18.5175   -7.5313    0.5016 H   0  0
   22.7769   -7.1239    1.1877 H   0  0
   23.7153   -9.2186   -0.8464 H   0  0
   23.7189   -7.5053   -1.1112 H   0  0
   23.5152   -9.4407    2.1195 H   0  0
   22.0466   -8.7012    2.7080 H   0  0
   21.5189  -12.3709    2.5271 H   0  0
   23.1480  -11.6369    2.6615 H   0  0
   21.7852  -10.9798    3.6315 H   0  0
   19.5540   -7.8225   -1.7916 H   0  0
   19.5291   -6.0891   -2.0136 H   0  0
   19.7201  -11.2340    1.5678 H   0  0
   19.9399   -9.7031    2.4777 H   0  0
   19.8848   -9.7032    0.6815 H   0  0
   21.6283  -12.0949    0.1508 H   0  0
   21.8098  -10.4857   -0.6084 H   0  0
   23.2166  -11.2561    0.2162 H   0  0
  1  2  1  0
  1 29  1  0
  1 30  1  0
  1 31  1  0
  2  3  1  0
  2 32  1  0
  2 33  1  0
  3  4  1  0
  3 34  1  0
  3 35  1  0
  4  5  1  0
  4 36  1  0
  4 37  1  0
  5  6  1  0
  5 38  1  0
  5 39  1  0
  6  7  1  0
  6 40  1  0
  6 41  1  0
  7  8  1  0
  7 42  1  0
  7 43  1  0
  8  9  1  0
  8 44  1  0
  8 45  1  0
  9 10  1  0
  9 46  1  0
  9 47  1  0
 10 11  1  0
 10 48  1  0
 10 49  1  0
 11 12  1  0
 11 50  1  0
 11 51  1  0
 12 13  1  0
 12 52  1  0
 12 53  1  0
 13 14  1  0
 13 54  1  0
 13 55  1  0
 14 26  1  0
 14 56  1  0
 14 57  1  0
 15 16  1  0
 15 17  2  0
 15 26  1  0
 16 18  1  0
 18 19  1  0
 18 23  1  0
 18 58  1  0
 19 20  1  0
 19 59  1  0
 19 60  1  0
 20 21  1  0
 20 22  2  0
 23 24  1  0
 23 61  1  0
 23 62  1  0
 24 25  1  0
 24 27  1  0
 24 28  1  0
 25 63  1  0
 25 64  1  0
 25 65  1  0
 26 66  1  0
 26 67  1  0
 27 68  1  0
 27 69  1  0
 27 70  1  0
 28 71  1  0
 28 72  1  0
 28 73  1  0
M  CHG  2  21  -1  24   1
M  END
> <Name>
ligand_215

> <activity>
1

$$$$
ligand_216
  SciTegic10272118463D

 53 55  0  0  1  0            999 V2000
   -0.3743    0.3277   -0.0158 C   0  0
   -0.2031    1.6987   -0.1906 C   0  0
   -1.3092    2.5378   -0.2574 C   0  0
   -2.6007    2.0195   -0.1604 C   0  0
   -2.8145    0.6305    0.0011 C   0  0
   -1.6744   -0.1956    0.0646 C   0  0
   -3.6302    2.9214   -0.2350 O   0  0
    0.7938   -0.4538    0.0289 N   0  0
    0.9699   -1.6641    0.5993 C   0  0
    0.1228   -2.3032    1.2235 O   0  0
    2.3567   -2.2195    0.4285 C   0  0
    2.6669   -3.0363   -0.6756 C   0  0
    3.9552   -3.5511   -0.8228 C   0  0
    4.9527   -3.2719    0.1104 C   0  0
    4.6436   -2.4620    1.2091 C   0  0
    3.3612   -1.9375    1.3740 C   0  0
    6.2254   -3.8266   -0.1026 N   0  0
    1.4950   -3.4394   -1.8895 Cl  0  0
   -4.2491    0.0216    0.1023 C   0  0
   -4.9966    0.5968    1.3330 C   0  0
   -5.0547    0.3129   -1.1900 C   0  0
   -4.2526   -1.5239    0.2772 C   0  0
    3.0718   -0.9424    2.7652 Cl  0  0
    7.3741   -3.4463    0.7109 C   0  0
    8.5895   -4.2580    0.2990 C   0  0
    9.4725   -3.7711   -0.6718 C   0  0
   10.5808   -4.5469   -1.0180 C   0  0
   10.8425   -5.7536   -0.4536 N   0  0
    9.9785   -6.2121    0.4880 C   0  0
    8.8475   -5.4996    0.8916 C   0  0
    0.7870    2.1251   -0.2683 H   0  0
   -1.1554    3.5995   -0.3858 H   0  0
   -1.7871   -1.2615    0.1609 H   0  0
   -3.3265    3.8248   -0.3446 H   0  0
    1.6120   -0.0253   -0.3774 H   0  0
    4.1764   -4.1770   -1.6757 H   0  0
    5.3939   -2.2287    1.9493 H   0  0
    6.4151   -4.2334   -1.0074 H   0  0
   -5.9728    0.1277    1.4645 H   0  0
   -4.4329    0.4305    2.2521 H   0  0
   -5.1832    1.6666    1.2575 H   0  0
   -6.0339   -0.1680   -1.1687 H   0  0
   -5.2421    1.3739   -1.3457 H   0  0
   -4.5332   -0.0570   -2.0738 H   0  0
   -5.2670   -1.9193    0.3505 H   0  0
   -3.7830   -2.0307   -0.5672 H   0  0
   -3.7328   -1.8321    1.1858 H   0  0
    7.5783   -2.3814    0.5879 H   0  0
    7.1633   -3.6140    1.7683 H   0  0
    9.3045   -2.8162   -1.1481 H   0  0
   11.2823   -4.2027   -1.7638 H   0  0
   10.2073   -7.1740    0.9229 H   0  0
    8.1865   -5.9042    1.6443 H   0  0
  1  2  2  0
  1  6  1  0
  1  8  1  0
  2  3  1  0
  2 31  1  0
  3  4  2  0
  3 32  1  0
  4  5  1  0
  4  7  1  0
  5  6  2  0
  5 19  1  0
  6 33  1  0
  7 34  1  0
  8  9  1  0
  8 35  1  0
  9 10  2  0
  9 11  1  0
 11 12  2  0
 11 16  1  0
 12 13  1  0
 12 18  1  0
 13 14  2  0
 13 36  1  0
 14 15  1  0
 14 17  1  0
 15 16  2  0
 15 37  1  0
 16 23  1  0
 17 24  1  0
 17 38  1  0
 19 20  1  0
 19 21  1  0
 19 22  1  0
 20 39  1  0
 20 40  1  0
 20 41  1  0
 21 42  1  0
 21 43  1  0
 21 44  1  0
 22 45  1  0
 22 46  1  0
 22 47  1  0
 24 25  1  0
 24 48  1  0
 24 49  1  0
 25 26  2  0
 25 30  1  0
 26 27  1  0
 26 50  1  0
 27 28  2  0
 27 51  1  0
 28 29  1  0
 29 30  2  0
 29 52  1  0
 30 53  1  0
M  END
> <Name>
ligand_216

> <activity>
1

$$$$
ligand_217
  SciTegic10272118463D

 52 55  0  0  1  0            999 V2000
    4.7961   -1.9090    0.5749 C   0  0
    7.3603    4.0848    3.9712 N   0  0
    6.1475   -1.4978    0.7999 C   0  0
    8.5115    3.6286    3.4971 C   0  0
    7.4212    5.3305    4.3663 C   0  0
    4.6160   -2.9808   -0.3455 C   0  0
    3.6497   -1.3394    1.1892 C   0  0
    8.9855    6.0778    4.1731 S   0  0
    7.1913   -2.0911    0.1682 N   0  0
    9.5462    4.5713    3.5165 C   0  0
    3.3132   -3.4422   -0.6178 C   0  0
    6.4184   -0.4340    1.6828 N   0  0
    2.3549   -1.8098    0.9074 C   0  0
    2.1935   -2.8765   -0.0082 C   0  0
    8.6204    2.2170    2.9993 C   0  0
    5.6668   -3.5770   -0.9746 N   0  0
    6.8983   -3.0986   -0.6830 C   0  0
    7.6013    0.2062    2.0954 C   0  0
    7.4918    1.5146    2.5639 C   0  0
    6.3435    6.0079    4.8932 O   0  0
    1.2355   -1.2538    1.5024 O   0  0
    1.0025   -3.4658   -0.4030 O   0  0
    9.8642    1.5807    2.9663 C   0  0
    9.9862    0.2727    2.5151 C   0  0
    8.8558   -0.4104    2.0848 C   0  0
   -0.2543   -3.0640    0.1279 C   0  0
    1.3572   -0.1794    2.4304 C   0  0
    6.5266    7.3631    5.2906 C   0  0
   -0.0448    0.2092    2.9076 C   0  0
   -1.3453   -3.9398   -0.4945 C   0  0
    3.8016   -0.5293    1.8848 H   0  0
   10.5681    4.4589    3.1864 H   0  0
    3.1871   -4.2562   -1.3177 H   0  0
    5.5831    0.0518    1.9706 H   0  0
    7.7326   -3.5694   -1.1828 H   0  0
    6.5235    1.9950    2.5816 H   0  0
   10.7521    2.0951    3.3035 H   0  0
   10.9512   -0.2124    2.5052 H   0  0
    8.9753   -1.4327    1.7629 H   0  0
   -0.2707   -3.1867    1.2120 H   0  0
   -0.4545   -2.0182   -0.1103 H   0  0
    1.9647   -0.4799    3.2858 H   0  0
    1.8347    0.6812    1.9586 H   0  0
    5.5866    7.7506    5.6830 H   0  0
    7.2734    7.4542    6.0810 H   0  0
    6.8149    7.9948    4.4489 H   0  0
   -0.0005    1.0311    3.6224 H   0  0
   -0.6696    0.5266    2.0722 H   0  0
   -0.5400   -0.6310    3.3953 H   0  0
   -2.3298   -3.6654   -0.1149 H   0  0
   -1.3642   -3.8319   -1.5794 H   0  0
   -1.1814   -4.9932   -0.2656 H   0  0
  1  3  1  0
  1  6  1  0
  1  7  2  0
  2  4  1  0
  2  5  2  0
  3  9  2  0
  3 12  1  0
  4 10  2  0
  4 15  1  0
  5  8  1  0
  5 20  1  0
  6 11  2  0
  6 16  1  0
  7 13  1  0
  7 31  1  0
  8 10  1  0
  9 17  1  0
 10 32  1  0
 11 14  1  0
 11 33  1  0
 12 18  1  0
 12 34  1  0
 13 14  2  0
 13 21  1  0
 14 22  1  0
 15 19  1  0
 15 23  2  0
 16 17  2  0
 17 35  1  0
 18 19  2  0
 18 25  1  0
 19 36  1  0
 20 28  1  0
 21 27  1  0
 22 26  1  0
 23 24  1  0
 23 37  1  0
 24 25  2  0
 24 38  1  0
 25 39  1  0
 26 30  1  0
 26 40  1  0
 26 41  1  0
 27 29  1  0
 27 42  1  0
 27 43  1  0
 28 44  1  0
 28 45  1  0
 28 46  1  0
 29 47  1  0
 29 48  1  0
 29 49  1  0
 30 50  1  0
 30 51  1  0
 30 52  1  0
M  END
> <Name>
ligand_217

> <activity>
1

$$$$
ligand_218
  SciTegic10272118463D

 55 59  0  0  1  0            999 V2000
    4.8502   -0.1004   -0.4271 F   0  0
    3.6870    0.5748   -0.2838 C   0  0
    2.5033   -0.1399   -0.1032 C   0  0
    1.3097    0.5797    0.0422 C   0  0
    0.0418    0.1031    0.2086 N   0  0
   -0.7142    1.1696    0.2940 C   0  0
   -2.1942    1.0657    0.4363 C   0  0
   -2.9423    0.4979   -0.5989 C   0  0
   -4.3262    0.3969   -0.4837 C   0  0
   -4.9590    0.8579    0.6695 C   0  0
   -6.6743    0.7334    0.8123 Cl  0  0
   -4.2175    1.4158    1.7094 C   0  0
   -2.8337    1.5170    1.5939 C   0  0
   -0.0030    2.3604    0.1952 N   0  0
   -0.5574    3.7311    0.2227 C   0  0  1  0  0  0
    0.0673    4.6080    1.3675 C   0  0
   -0.6416    5.9852    1.5179 C   0  0
   -0.0204    6.8589    2.6262 C   0  0
    0.0265    6.1251    3.9779 C   0  0
    0.7293    4.7618    3.8546 C   0  0
    0.1006    3.8923    2.7480 C   0  0
   -0.4951    4.3593   -1.1882 C   0  0
    0.4017    5.1504   -1.4860 O   0  0
   -1.4425    3.9606   -2.0554 N   0  0
   -1.5605    4.4424   -3.4264 C   0  0
   -0.5023    4.0570   -4.4386 C   0  0
   -1.8742    3.4316   -4.5050 C   0  0
    1.3256    1.9963    0.0120 C   0  0
    2.5146    2.7134   -0.1810 C   0  0
    3.6891    1.9705   -0.3244 C   0  0
    4.8577    2.6257   -0.5096 F   0  0
    2.5100   -1.2195   -0.0814 H   0  0
   -2.4526    0.1398   -1.4934 H   0  0
   -4.9044   -0.0383   -1.2856 H   0  0
   -4.7117    1.7663    2.6038 H   0  0
   -2.2616    1.9393    2.4055 H   0  0
   -1.6169    3.6439    0.4623 H   0  0
    1.1037    4.8214    1.1052 H   0  0
   -0.6088    6.5431    0.5819 H   0  0
   -1.6993    5.8283    1.7360 H   0  0
    0.9910    7.1464    2.3347 H   0  0
   -0.5827    7.7880    2.7272 H   0  0
    0.5338    6.7417    4.7209 H   0  0
   -0.9899    5.9777    4.3465 H   0  0
    1.7873    4.9162    3.6365 H   0  0
    0.6895    4.2358    4.8093 H   0  0
   -0.9141    3.6267    3.0443 H   0  0
    0.6560    2.9561    2.6875 H   0  0
   -2.2182    3.4207   -1.7012 H   0  0
   -2.0136    5.4315   -3.5116 H   0  0
   -0.2196    4.7862   -5.1979 H   0  0
    0.3391    3.4429   -4.1152 H   0  0
   -1.9805    2.3806   -4.2337 H   0  0
   -2.5432    3.7236   -5.3148 H   0  0
    2.5406    3.7913   -0.2278 H   0  0
  1  2  1  0
  2  3  1  0
  2 30  2  0
  3  4  2  0
  3 32  1  0
  4  5  1  0
  4 28  1  0
  5  6  2  0
  6  7  1  0
  6 14  1  0
  7  8  2  0
  7 13  1  0
  8  9  1  0
  8 33  1  0
  9 10  2  0
  9 34  1  0
 10 11  1  0
 10 12  1  0
 12 13  2  0
 12 35  1  0
 13 36  1  0
 14 15  1  0
 14 28  1  0
 15 16  1  0
 15 22  1  0
 15 37  1  0
 16 17  1  0
 16 21  1  0
 16 38  1  0
 17 18  1  0
 17 39  1  0
 17 40  1  0
 18 19  1  0
 18 41  1  0
 18 42  1  0
 19 20  1  0
 19 43  1  0
 19 44  1  0
 20 21  1  0
 20 45  1  0
 20 46  1  0
 21 47  1  0
 21 48  1  0
 22 23  2  0
 22 24  1  0
 24 25  1  0
 24 49  1  0
 25 26  1  0
 25 27  1  0
 25 50  1  0
 26 27  1  0
 26 51  1  0
 26 52  1  0
 27 53  1  0
 27 54  1  0
 28 29  2  0
 29 30  1  0
 29 55  1  0
 30 31  1  0
M  END
> <Name>
ligand_218

> <activity>
1

$$$$
ligand_219
  SciTegic10272118463D

 69 72  0  0  1  0            999 V2000
   20.4275   -3.2529    1.7521 C   0  0
   13.7330   -6.6715    2.0323 C   0  0
   17.7960   -6.7549   -2.1522 O   0  0
   19.2009   -5.0154   -1.2776 C   0  0
   14.9372   -4.2429   -0.2981 C   0  0
   13.3503   -7.3140    0.6812 C   0  0
   13.6624   -6.1216   -2.1579 O   0  0
   18.5116   -6.3585   -0.9915 C   0  0
   11.1169   -6.2391    0.8920 C   0  0
   18.0900   -2.8070    0.9280 C   0  0
   11.4739   -2.5889   -0.2358 C   0  0
   11.4424   -4.9318   -1.8851 O   0  0
   17.0698   -3.5655    0.4747 N   0  0
   13.5647   -4.0726   -0.4982 C   0  0
   18.0059   -1.6517    1.3450 O   0  0
   21.0844   -4.8046    0.2646 N   0  0
   19.8592   -4.4273   -0.0401 C   0  0
   23.7968   -3.3676    1.1972 C   0  0
   12.5684   -6.4523    2.8294 O   0  0
   11.5952   -5.6074    2.2143 C   0  0
   12.6862   -5.4414   -1.2974 S   0  0
   12.9585   -2.8772   -0.0595 C   0  0
   15.0960   -2.0803    0.7625 C   0  0
   21.4264   -4.0933    1.3453 N   0  0
   22.7627   -4.2293    1.9076 C   0  0
   13.7327   -1.8949    0.5649 C   0  0
   15.7058   -3.2621    0.3267 C   0  0
   12.2534   -6.5790    0.0023 N   0  0
   19.3572   -3.4926    0.9030 C   0  0
   24.1153   -2.0999    1.6861 C   0  0
   25.0561   -1.3035    1.0394 C   0  0
   25.6856   -1.7750   -0.1086 C   0  0
   25.3807   -3.0384   -0.6168 C   0  0
   24.4314   -3.8344    0.0449 C   0  0
   17.0332   -7.9383   -1.9733 C   0  0
   26.0532   -3.4184   -1.7624 O   0  0
   25.7772   -4.6893   -2.3415 C   0  0
   20.5595   -2.5895    2.5945 H   0  0
   14.4149   -7.3221    2.5801 H   0  0
   14.2428   -5.7189    1.8894 H   0  0
   18.4702   -4.3181   -1.6879 H   0  0
   19.9307   -5.1503   -2.0774 H   0  0
   15.4117   -5.1569   -0.6277 H   0  0
   14.2075   -7.3812    0.0120 H   0  0
   13.0051   -8.3364    0.8379 H   0  0
   19.2511   -7.1157   -0.7239 H   0  0
   17.8258   -6.2568   -0.1480 H   0  0
   10.5766   -7.1645    1.0941 H   0  0
   10.4193   -5.5943    0.3593 H   0  0
   10.8639   -3.4033    0.1495 H   0  0
   11.1665   -1.6865    0.2944 H   0  0
   11.2385   -2.4398   -1.2898 H   0  0
   17.3236   -4.4910    0.1639 H   0  0
   12.0338   -4.6229    2.0466 H   0  0
   10.7566   -5.4773    2.8984 H   0  0
   15.6470   -1.2963    1.2565 H   0  0
   22.7199   -3.9760    2.9682 H   0  0
   23.0564   -5.2800    1.8638 H   0  0
   13.2792   -0.9752    0.9055 H   0  0
   23.6291   -1.7242    2.5749 H   0  0
   25.2955   -0.3237    1.4258 H   0  0
   26.4146   -1.1554   -0.6101 H   0  0
   24.1723   -4.8142   -0.3270 H   0  0
   16.5167   -8.1818   -2.9017 H   0  0
   17.6678   -8.7860   -1.7105 H   0  0
   16.2778   -7.8109   -1.1967 H   0  0
   26.3889   -4.8176   -3.2344 H   0  0
   26.0205   -5.5030   -1.6564 H   0  0
   24.7321   -4.7736   -2.6436 H   0  0
  1 24  1  0
  1 29  2  0
  1 38  1  0
  2  6  1  0
  2 19  1  0
  2 39  1  0
  2 40  1  0
  3  8  1  0
  3 35  1  0
  4 17  1  0
  4  8  1  0
  4 41  1  0
  4 42  1  0
  5 14  2  0
  5 27  1  0
  5 43  1  0
  6 28  1  0
  6 44  1  0
  6 45  1  0
  7 21  2  0
  8 46  1  0
  8 47  1  0
  9 20  1  0
  9 28  1  0
  9 48  1  0
  9 49  1  0
 10 15  2  0
 10 13  1  0
 10 29  1  0
 11 22  1  0
 11 50  1  0
 11 51  1  0
 11 52  1  0
 12 21  2  0
 13 27  1  0
 13 53  1  0
 14 22  1  0
 14 21  1  0
 16 17  2  0
 16 24  1  0
 17 29  1  0
 18 25  1  0
 18 30  1  0
 18 34  2  0
 19 20  1  0
 20 54  1  0
 20 55  1  0
 21 28  1  0
 22 26  2  0
 23 26  1  0
 23 27  2  0
 23 56  1  0
 24 25  1  0
 25 57  1  0
 25 58  1  0
 26 59  1  0
 30 31  2  0
 30 60  1  0
 31 32  1  0
 31 61  1  0
 32 33  2  0
 32 62  1  0
 33 34  1  0
 33 36  1  0
 34 63  1  0
 35 64  1  0
 35 65  1  0
 35 66  1  0
 36 37  1  0
 37 67  1  0
 37 68  1  0
 37 69  1  0
M  END
> <Name>
ligand_219

> <activity>
1

$$$$
ligand_220
  SciTegic10272118463D

 53 57  0  0  1  0            999 V2000
   -2.2283    5.1241    3.6828 O   0  0
   -1.4202    4.7536    2.6415 C   0  0
   -1.8127    5.0295    1.3331 C   0  0
   -0.9932    4.6540    0.2718 C   0  0
    0.2127    3.9946    0.5222 C   0  0
    1.1204    3.5982   -0.6345 C   0  0
    1.1981    2.1470   -0.8499 N   0  0
    2.2818    1.4350   -0.4492 C   0  0
    3.3004    1.8625    0.0987 O   0  0
    2.0021   -0.0462   -0.8030 C   0  0
    2.0538   -0.9371    0.4734 C   0  0
    3.4828   -1.1985    0.9963 C   0  0
    4.4053   -1.6564   -0.0753 N   0  0
    4.4302   -0.8185   -1.3025 C   0  0
    3.0171   -0.5579   -1.8665 C   0  0
    5.9684   -2.2991    0.4634 S   0  0
    5.7564   -3.1557    1.6361 O   0  0
    6.7210   -2.7656   -0.7069 O   0  0
    6.7780   -0.7910    1.0517 C   0  0
    6.6836   -0.2730    2.3381 C   0  0
    7.3990    0.9193    2.4916 C   0  0
    8.0366    1.3134    1.3227 C   0  0
    7.7537    0.2064    0.0174 S   0  0
    0.6099    0.0166   -1.3654 C   0  0
   -0.2385   -0.9823   -1.8430 C   0  0
   -1.5050   -0.6345   -2.3135 C   0  0
   -2.6704   -1.9901   -2.9664 Br  0  0
   -1.9267    0.6959   -2.3114 C   0  0
   -1.0767    1.6916   -1.8350 C   0  0
    0.1876    1.3327   -1.3642 C   0  0
    0.6081    3.7323    1.8368 C   0  0
   -0.2116    4.1079    2.8979 C   0  0
   -1.8655    4.8891    4.5394 H   0  0
   -2.7478    5.5349    1.1402 H   0  0
   -1.2989    4.8758   -0.7402 H   0  0
    2.1089    4.0159   -0.4341 H   0  0
    0.7697    4.0696   -1.5535 H   0  0
    1.4406   -0.5156    1.2724 H   0  0
    1.6010   -1.9041    0.2480 H   0  0
    3.9081   -0.2969    1.4374 H   0  0
    3.4665   -1.9523    1.7840 H   0  0
    4.9294    0.1185   -1.0549 H   0  0
    5.0511   -1.3152   -2.0486 H   0  0
    2.6473   -1.4952   -2.2860 H   0  0
    3.0794    0.1277   -2.7139 H   0  0
    6.1178   -0.7394    3.1314 H   0  0
    7.4484    1.4736    3.4173 H   0  0
    8.6486    2.1899    1.1693 H   0  0
    0.0707   -2.0171   -1.8528 H   0  0
   -2.9088    0.9546   -2.6791 H   0  0
   -1.4079    2.7187   -1.8407 H   0  0
    1.5463    3.2345    2.0360 H   0  0
    0.0954    3.8978    3.9120 H   0  0
  1  2  1  0
  1 33  1  0
  2  3  2  0
  2 32  1  0
  3  4  1  0
  3 34  1  0
  4  5  2  0
  4 35  1  0
  5  6  1  0
  5 31  1  0
  6  7  1  0
  6 36  1  0
  6 37  1  0
  7  8  1  0
  7 30  1  0
  8  9  2  0
  8 10  1  0
 10 11  1  0
 10 15  1  0
 10 24  1  0
 11 12  1  0
 11 38  1  0
 11 39  1  0
 12 13  1  0
 12 40  1  0
 12 41  1  0
 13 14  1  0
 13 16  1  0
 14 15  1  0
 14 42  1  0
 14 43  1  0
 15 44  1  0
 15 45  1  0
 16 17  2  0
 16 18  2  0
 16 19  1  0
 19 20  2  0
 19 23  1  0
 20 21  1  0
 20 46  1  0
 21 22  2  0
 21 47  1  0
 22 23  1  0
 22 48  1  0
 24 25  2  0
 24 30  1  0
 25 26  1  0
 25 49  1  0
 26 27  1  0
 26 28  2  0
 28 29  1  0
 28 50  1  0
 29 30  2  0
 29 51  1  0
 31 32  2  0
 31 52  1  0
 32 53  1  0
M  END
> <Name>
ligand_220

> <activity>
1

$$$$
ligand_221
  SciTegic10272118463D

 62 66  0  0  1  0            999 V2000
   -0.7936    3.1720    1.7961 C   0  0
   -2.1134    3.0653    2.2312 C   0  0
   -2.7461    1.8310    2.3122 C   0  0
   -2.0757    0.6641    1.9604 C   0  0
   -4.0433    1.7639    2.7445 O   0  0
   -0.0698    2.0175    1.4229 C   0  0
    1.2901    1.8916    0.9585 C   0  0
   -0.7474    0.7643    1.5204 C   0  0
    1.5839    0.5465    0.6873 C   0  0
    0.2751   -0.5608    1.0342 S   0  0
    2.8208   -0.0638    0.1097 C   0  0
    3.3482    0.4310   -1.0871 C   0  0
    3.4661   -1.1138    0.7716 C   0  0
    4.6330   -1.6603    0.2440 C   0  0
    5.1540   -1.1573   -0.9467 C   0  0
    4.5154   -0.1146   -1.6144 C   0  0
    6.3029   -1.6905   -1.4664 O   0  0
    2.2048    3.0300    0.7657 C   0  0
    1.7822    4.0454    0.2094 O   0  0
    3.6307    2.9410    1.2330 C   0  0
    5.9080    3.7663    1.1320 C   0  0
    6.3043    2.8471    2.1016 C   0  0
    5.3488    1.9818    2.6532 C   0  0
    4.0242    2.0364    2.2290 C   0  0
    4.5841    3.8216    0.7060 C   0  0
    7.6392    2.8648    2.4563 O   0  0
    8.1116    1.9695    3.4594 C   0  0
    9.6194    2.1843    3.6938 C   0  0
   11.4149    3.3796    5.0003 C   0  0
   11.7215    4.5522    5.9470 C   0  0
   11.3194    5.9010    5.3328 C   0  0
    9.8392    5.9042    4.9236 C   0  0
    9.4935    4.7441    3.9729 C   0  0
    9.9130    3.3976    4.6174 N   0  3
   -0.3366    4.1495    1.7519 H   0  0
   -2.6512    3.9597    2.5111 H   0  0
   -2.5660   -0.2963    2.0242 H   0  0
   -4.3873    0.8684    2.7623 H   0  0
    2.8586    1.2413   -1.6079 H   0  0
    3.0712   -1.5010    1.6998 H   0  0
    5.1279   -2.4684    0.7625 H   0  0
    4.9226    0.2721   -2.5372 H   0  0
    6.6564   -2.4080   -0.9364 H   0  0
    6.6333    4.4435    0.7051 H   0  0
    5.6129    1.2624    3.4130 H   0  0
    3.3126    1.3652    2.6879 H   0  0
    4.3135    4.5472   -0.0486 H   0  0
    7.9468    0.9425    3.1283 H   0  0
    7.5624    2.1070    4.3930 H   0  0
   10.1749    2.3434    2.7674 H   0  0
   10.0364    1.3220    4.2170 H   0  0
   11.9844    3.4467    4.0712 H   0  0
   11.6181    2.4218    5.4822 H   0  0
   11.1992    4.4047    6.8937 H   0  0
   12.7856    4.5595    6.1870 H   0  0
   11.5120    6.7069    6.0427 H   0  0
   11.9423    6.1088    4.4609 H   0  0
    9.2103    5.8438    5.8133 H   0  0
    9.5923    6.8528    4.4450 H   0  0
    8.4183    4.7113    3.8027 H   0  0
   10.0155    4.8208    3.0174 H   0  0
    9.3787    3.2780    5.4672 H   0  0
  1  2  1  0
  1  6  2  0
  1 35  1  0
  2  3  2  0
  2 36  1  0
  3  4  1  0
  3  5  1  0
  4  8  2  0
  4 37  1  0
  5 38  1  0
  6  7  1  0
  6  8  1  0
  7  9  2  0
  7 18  1  0
  8 10  1  0
  9 10  1  0
  9 11  1  0
 11 12  2  0
 11 13  1  0
 12 16  1  0
 12 39  1  0
 13 14  2  0
 13 40  1  0
 14 15  1  0
 14 41  1  0
 15 16  2  0
 15 17  1  0
 16 42  1  0
 17 43  1  0
 18 19  2  0
 18 20  1  0
 20 24  2  0
 20 25  1  0
 21 22  1  0
 21 25  2  0
 21 44  1  0
 22 23  2  0
 22 26  1  0
 23 24  1  0
 23 45  1  0
 24 46  1  0
 25 47  1  0
 26 27  1  0
 27 28  1  0
 27 48  1  0
 27 49  1  0
 28 34  1  0
 28 50  1  0
 28 51  1  0
 29 30  1  0
 29 34  1  0
 29 52  1  0
 29 53  1  0
 30 31  1  0
 30 54  1  0
 30 55  1  0
 31 32  1  0
 31 56  1  0
 31 57  1  0
 32 33  1  0
 32 58  1  0
 32 59  1  0
 33 34  1  0
 33 60  1  0
 33 61  1  0
 34 62  1  0
M  CHG  1  34   1
M  END
> <Name>
ligand_221

> <activity>
1

$$$$
ligand_222
  SciTegic10272118463D

 54 56  0  0  1  0            999 V2000
   15.8150   -7.9958   -1.0111 C   0  0
   13.5479   -7.8982    0.1180 C   0  0
   11.1630   -6.4031    0.3262 C   0  0
   17.3123   -0.1872    0.2949 O   0  0
    9.9816   -4.3043    0.1441 N   0  0
    6.6749   -2.5882   -0.0711 C   0  0
    9.3734   -1.9486    0.3987 C   0  0
    8.8302   -6.1874    0.7571 O   0  0
    8.3817   -0.9531    0.3958 C   0  0
   11.1291   -7.7437   -0.0712 C   0  0
   12.3055   -8.4810   -0.1758 C   0  0
   13.5733   -6.5562    0.5227 C   0  0
   12.6095    1.4631   -0.3545 C   0  0
   15.0160    1.3635   -0.1791 C   0  0
    8.9909   -3.2964    0.1762 C   0  0
   12.3995   -5.8168    0.6285 C   0  0
   14.9618   -0.0089    0.1139 C   0  0
    9.8758   -5.6200    0.4348 C   0  0
    7.0451   -1.2690    0.1655 C   0  0
   16.2189   -0.7960    0.3503 C   0  0
   14.6897  -10.1552   -0.4514 C   0  0
   14.8793   -8.6859    0.0123 C   0  0
   11.2347   -0.4601   -0.0245 N   0  0
   13.8509    2.0916   -0.4143 C   0  0
    7.6385   -3.5928   -0.0711 C   0  0
   15.5750   -8.7237    1.3955 C   0  0
   13.7013   -0.6276    0.1735 C   0  0
   12.5221    0.1042   -0.0469 C   0  0
   16.1102   -2.0210    0.5891 O   0  5
   10.8115   -1.5470    0.6590 C   0  0
   11.5082   -2.2037    1.4352 O   0  0
    5.8504   -0.0236    0.1680 Cl  0  0
   16.7547   -8.5379   -1.1260 H   0  0
   15.3519   -7.9378   -1.9972 H   0  0
   16.0736   -6.9789   -0.7142 H   0  0
   10.9166   -3.9650   -0.0272 H   0  0
    5.6408   -2.8358   -0.2611 H   0  0
    8.6392    0.0806    0.5812 H   0  0
   10.1901   -8.2254   -0.3064 H   0  0
   12.2233   -9.5099   -0.4893 H   0  0
   14.5090   -6.0728    0.7618 H   0  0
   11.7169    2.0428   -0.5425 H   0  0
   15.9647    1.8788   -0.2346 H   0  0
   12.4681   -4.7883    0.9542 H   0  0
   14.0656  -10.7216    0.2414 H   0  0
   14.2300  -10.2123   -1.4392 H   0  0
   15.6434  -10.6811   -0.5173 H   0  0
   10.5423    0.0372   -0.5641 H   0  0
   13.9114    3.1449   -0.6454 H   0  0
    7.3130   -4.5991   -0.2853 H   0  0
   14.9389   -9.1921    2.1479 H   0  0
   16.5070   -9.2899    1.3613 H   0  0
   15.8264   -7.7267    1.7585 H   0  0
   13.6465   -1.6871    0.3758 H   0  0
  1 22  1  0
  1 33  1  0
  1 34  1  0
  1 35  1  0
  2 11  2  0
  2 22  1  0
  2 12  1  0
  3 16  1  0
  3 10  2  0
  3 18  1  0
  4 20  2  0
  5 15  1  0
  5 18  1  0
  5 36  1  0
  6 25  1  0
  6 19  2  0
  6 37  1  0
  7  9  2  0
  7 15  1  0
  7 30  1  0
  8 18  2  0
  9 19  1  0
  9 38  1  0
 10 11  1  0
 10 39  1  0
 11 40  1  0
 12 16  2  0
 12 41  1  0
 13 28  1  0
 13 24  2  0
 13 42  1  0
 14 17  2  0
 14 24  1  0
 14 43  1  0
 15 25  2  0
 16 44  1  0
 17 27  1  0
 17 20  1  0
 19 32  1  0
 20 29  1  0
 21 22  1  0
 21 45  1  0
 21 46  1  0
 21 47  1  0
 22 26  1  0
 23 28  1  0
 23 30  1  0
 23 48  1  0
 24 49  1  0
 25 50  1  0
 26 51  1  0
 26 52  1  0
 26 53  1  0
 27 28  2  0
 27 54  1  0
 30 31  2  0
M  CHG  1  29  -1
M  END
> <Name>
ligand_222

> <activity>
1

$$$$
ligand_223
  SciTegic10272118463D

 71 75  0  0  1  0            999 V2000
   14.7926    0.9643   -4.6393 C   0  0
   14.3099   -0.0718   -3.8411 C   0  0
   14.7055   -0.2215   -2.5102 C   0  0
   15.6976    1.9069   -4.1493 C   0  0
   16.0964    1.7613   -2.8172 C   0  0
   15.6151    0.7194   -2.0024 C   0  0
   16.2078    0.8635   -0.7381 N   0  0
   17.0361    1.9777   -0.7789 C   0  0
   16.9632    2.5076   -2.0405 N   0  3
   15.9661   -0.0326    0.4136 C   0  0  1  0  0  0
   17.2211   -0.8685    0.7549 C   0  0
   17.9370   -0.5240    1.8421 N   0  0
   17.5324   -1.8067    0.0207 O   0  0
   17.8911    2.5480    0.2929 C   0  0
   19.2501    2.2298    0.3282 C   0  0
   20.0690    2.7901    1.3046 C   0  0
   19.5267    3.6666    2.2469 C   0  0
   18.1679    3.9871    2.2108 C   0  0
   17.3527    3.4352    1.2269 C   0  0
   20.5747    4.3777    3.5152 S   0  0
   20.4200    3.1594    4.9441 C   0  0
   21.9560    4.3380    3.0224 O   0  0
   19.9680    5.6490    3.9252 O   0  0
   19.1086   -1.2343    2.3597 C   0  0
   15.2453    0.6862    1.6107 C   0  0
   19.9141   -0.3751    3.3611 C   0  0
   21.1642   -1.0972    3.9016 C   0  0
   20.8151   -2.4680    4.5089 C   0  0
   20.0325   -3.3437    3.5134 C   0  0
   18.7823   -2.6214    2.9726 C   0  0
   14.0504    1.5747    1.1581 C   0  0
   13.3484    2.2771    2.3369 C   0  0
   12.8939    1.2755    3.4128 C   0  0
   14.0587    0.3866    3.8822 C   0  0
   14.7579   -0.3135    2.7001 C   0  0
   14.4572    1.0382   -5.6637 H   0  0
   13.6110   -0.7784   -4.2652 H   0  0
   14.3165   -1.0345   -1.9155 H   0  0
   16.0660    2.7056   -4.7766 H   0  0
   15.2496   -0.7798    0.0731 H   0  0
   17.6234    0.2659    2.3863 H   0  0
   19.6731    1.5506   -0.3985 H   0  0
   21.1196    2.5384    1.3279 H   0  0
   17.7441    4.6673    2.9356 H   0  0
   16.3051    3.6978    1.1941 H   0  0
   20.8118    2.1932    4.6305 H   0  0
   20.9984    3.5369    5.7867 H   0  0
   19.3707    3.0697    5.2228 H   0  0
   19.7581   -1.3969    1.4954 H   0  0
   15.9642    1.3449    2.0963 H   0  0
   20.2192    0.5566    2.8873 H   0  0
   19.2721   -0.0916    4.1970 H   0  0
   21.8828   -1.2323    3.0916 H   0  0
   21.6611   -0.4751    4.6471 H   0  0
   21.7253   -2.9808    4.8224 H   0  0
   20.2199   -2.3244    5.4122 H   0  0
   20.6826   -3.6143    2.6798 H   0  0
   19.7438   -4.2817    3.9895 H   0  0
   18.0593   -2.4983    3.7807 H   0  0
   18.2960   -3.2574    2.2318 H   0  0
   14.3786    2.3386    0.4531 H   0  0
   13.3250    0.9623    0.6198 H   0  0
   14.0296    3.0039    2.7824 H   0  0
   12.4917    2.8468    1.9744 H   0  0
   12.4633    1.8078    4.2619 H   0  0
   12.0970    0.6476    3.0109 H   0  0
   14.7850    0.9949    4.4237 H   0  0
   13.6953   -0.3566    4.5930 H   0  0
   14.0683   -1.0315    2.2528 H   0  0
   15.5864   -0.9032    3.0919 H   0  0
   17.4863    3.3275   -2.3134 H   0  0
  1  2  2  0
  1  4  1  0
  1 36  1  0
  2  3  1  0
  2 37  1  0
  3  6  2  0
  3 38  1  0
  4  5  2  0
  4 39  1  0
  5  6  1  0
  5  9  1  0
  6  7  1  0
  7  8  1  0
  7 10  1  0
  8  9  2  0
  8 14  1  0
  9 71  1  0
 10 11  1  0
 10 25  1  0
 10 40  1  0
 11 12  1  0
 11 13  2  0
 12 24  1  0
 12 41  1  0
 14 15  1  0
 14 19  2  0
 15 16  2  0
 15 42  1  0
 16 17  1  0
 16 43  1  0
 17 18  2  0
 17 20  1  0
 18 19  1  0
 18 44  1  0
 19 45  1  0
 20 21  1  0
 20 22  2  0
 20 23  2  0
 21 46  1  0
 21 47  1  0
 21 48  1  0
 24 26  1  0
 24 30  1  0
 24 49  1  0
 25 31  1  0
 25 35  1  0
 25 50  1  0
 26 27  1  0
 26 51  1  0
 26 52  1  0
 27 28  1  0
 27 53  1  0
 27 54  1  0
 28 29  1  0
 28 55  1  0
 28 56  1  0
 29 30  1  0
 29 57  1  0
 29 58  1  0
 30 59  1  0
 30 60  1  0
 31 32  1  0
 31 61  1  0
 31 62  1  0
 32 33  1  0
 32 63  1  0
 32 64  1  0
 33 34  1  0
 33 65  1  0
 33 66  1  0
 34 35  1  0
 34 67  1  0
 34 68  1  0
 35 69  1  0
 35 70  1  0
M  CHG  1   9   1
M  END
> <Name>
ligand_223

> <activity>
1

$$$$
ligand_224
  SciTegic10272118463D

 52 55  0  0  1  0            999 V2000
    4.8808   -1.3088    0.5290 C   0  0
    6.8834    5.1283    3.4679 N   0  0
    6.1514   -0.8963    1.0399 C   0  0
    8.0811    4.5650    3.4049 C   0  0
    4.8744   -2.5212   -0.2208 C   0  0
    3.6564   -0.6104    0.7077 C   0  0
    6.9138    6.4253    3.6579 C   0  0
    7.2805   -1.6147    0.8174 N   0  0
    8.5145    7.0761    3.7770 S   0  0
    9.1336    5.4712    3.5520 C   0  0
    3.6591   -2.9953   -0.7551 C   0  0
    6.2550    0.2988    1.7788 N   0  0
    2.4547   -1.0964    0.1658 C   0  0
    2.4625   -2.3088   -0.5551 C   0  0
    8.2165    3.0858    3.1912 C   0  0
    6.0098   -3.2411   -0.4390 N   0  0
    7.1519   -2.7476    0.0927 C   0  0
    7.3306    0.9729    2.3855 C   0  0
    7.1945    2.3456    2.5879 C   0  0
    1.3543   -2.8998   -1.1338 O   0  0
    1.2595   -0.4109    0.2875 O   0  0
    9.3778    2.4239    3.5987 C   0  0
    5.6651    7.2679    3.7618 C   0  0
    9.5214    1.0545    3.4162 C   0  0
   -1.0983    0.2284    1.7550 O   0  0
    8.4977    0.3340    2.8142 C   0  0
    1.1683    0.7490    1.1113 C   0  0
   -0.2904    1.2232    1.1390 C   0  0
    0.0837   -2.7837   -0.5013 C   0  0
   -2.4762    0.5654    1.7996 C   0  0
    3.6743    0.3132    1.2644 H   0  0
   10.1967    5.2835    3.5360 H   0  0
    3.6615   -3.9163   -1.3206 H   0  0
    5.4095    0.8470    1.7483 H   0  0
    8.0536   -3.3172   -0.0810 H   0  0
    6.2916    2.8448    2.2654 H   0  0
   10.1805    2.9681    4.0744 H   0  0
    5.6103    7.7807    4.7220 H   0  0
    5.6359    8.0329    2.9859 H   0  0
    4.7535    6.6774    3.6627 H   0  0
   10.4188    0.5520    3.7459 H   0  0
    8.6251   -0.7316    2.7071 H   0  0
    1.4975    0.5210    2.1269 H   0  0
    1.8049    1.5433    0.7181 H   0  0
   -0.3629    2.1619    1.6912 H   0  0
   -0.6354    1.4119    0.1204 H   0  0
   -0.5571   -3.5967   -0.8420 H   0  0
    0.1511   -2.8533    0.5860 H   0  0
   -0.4126   -1.8519   -0.7736 H   0  0
   -3.0311   -0.2375    2.2848 H   0  0
   -2.6447    1.4801    2.3701 H   0  0
   -2.8869    0.6962    0.7972 H   0  0
  1  3  1  0
  1  5  1  0
  1  6  2  0
  2  4  1  0
  2  7  2  0
  3  8  2  0
  3 12  1  0
  4 10  2  0
  4 15  1  0
  5 11  2  0
  5 16  1  0
  6 13  1  0
  6 31  1  0
  7  9  1  0
  7 23  1  0
  8 17  1  0
  9 10  1  0
 10 32  1  0
 11 14  1  0
 11 33  1  0
 12 18  1  0
 12 34  1  0
 13 14  2  0
 13 21  1  0
 14 20  1  0
 15 19  1  0
 15 22  2  0
 16 17  2  0
 17 35  1  0
 18 19  2  0
 18 26  1  0
 19 36  1  0
 20 29  1  0
 21 27  1  0
 22 24  1  0
 22 37  1  0
 23 38  1  0
 23 39  1  0
 23 40  1  0
 24 26  2  0
 24 41  1  0
 25 28  1  0
 25 30  1  0
 26 42  1  0
 27 28  1  0
 27 43  1  0
 27 44  1  0
 28 45  1  0
 28 46  1  0
 29 47  1  0
 29 48  1  0
 29 49  1  0
 30 50  1  0
 30 51  1  0
 30 52  1  0
M  END
> <Name>
ligand_224

> <activity>
1

$$$$
ligand_225
  SciTegic10272118463D

 59 63  0  0  1  0            999 V2000
   -2.5025    8.8788   -0.1998 C   0  0
   -1.9872    7.5151   -0.1393 N   0  0
   -2.7417    6.4055   -0.0359 C   0  0
   -3.9739    6.4215   -0.0055 O   0  0
   -1.9891    5.0966    0.0092 C   0  0
   -2.5701    3.9448   -0.5351 C   0  0
   -1.8944    2.7284   -0.4988 C   0  0
   -0.6339    2.6420    0.0931 C   0  0
   -0.0260    1.3752    0.0738 N   0  0
    0.9541    0.8898    0.8676 C   0  0
    1.5274    1.5181    1.7581 O   0  0
    1.3311   -0.4781    0.5780 C   0  0
    2.5821   -1.0672    0.7602 C   0  0
    3.9174   -0.5233    1.2529 C   0  0
    5.0248   -1.4502    0.8968 N   0  0
    4.7591   -2.8926    1.1314 C   0  0
    3.5593   -3.4130    0.3041 C   0  0
    2.4215   -2.4018    0.3488 C   0  0
    1.1902   -2.6630   -0.0117 N   0  0
    0.5093   -1.5177    0.1545 N   0  0
   -0.8844   -1.5355   -0.0850 C   0  0
   -1.3808   -1.9782   -1.3116 C   0  0
   -2.7498   -1.9825   -1.5478 C   0  0
   -3.6281   -1.5505   -0.5620 C   0  0
   -3.1392   -1.1180    0.6640 C   0  0
   -1.7713   -1.1133    0.9056 C   0  0
    6.6704   -0.8623    1.1834 S   0  0
    6.7211   -0.1950    2.4895 O   0  0
    7.6295   -1.9108    0.8172 O   0  0
    6.7962    0.4191   -0.0840 C   0  0
    7.1236    1.7512    0.1379 C   0  0
    7.1445    2.5019   -1.0426 C   0  0
    6.8386    1.7419   -2.1641 C   0  0
    6.5220    0.0833   -1.7653 S   0  0
   -0.0417    3.7913    0.6353 C   0  0
   -0.7187    5.0074    0.5969 C   0  0
   -2.3067    9.3058   -1.1835 H   0  0
   -3.5754    8.9393   -0.0114 H   0  0
   -1.9977    9.4962    0.5433 H   0  0
   -0.9862    7.4098   -0.2108 H   0  0
   -3.5486    3.9839   -0.9936 H   0  0
   -2.3631    1.8534   -0.9271 H   0  0
   -0.4282    0.7277   -0.5877 H   0  0
    4.1426    0.4658    0.8533 H   0  0
    3.9007   -0.4264    2.3391 H   0  0
    5.6513   -3.4668    0.8814 H   0  0
    4.5918   -3.0215    2.2018 H   0  0
    3.8722   -3.5573   -0.7306 H   0  0
    3.2541   -4.3942    0.6689 H   0  0
   -0.7068   -2.3138   -2.0871 H   0  0
   -3.1318   -2.3219   -2.4995 H   0  0
   -4.6922   -1.5542   -0.7478 H   0  0
   -3.8233   -0.7857    1.4311 H   0  0
   -1.4041   -0.7761    1.8647 H   0  0
    7.3359    2.1623    1.1142 H   0  0
    7.3746    3.5566   -1.0780 H   0  0
    6.7870    2.0736   -3.1906 H   0  0
    0.9413    3.7687    1.0791 H   0  0
   -0.2435    5.8749    1.0322 H   0  0
  1  2  1  0
  1 37  1  0
  1 38  1  0
  1 39  1  0
  2  3  1  0
  2 40  1  0
  3  4  2  0
  3  5  1  0
  5  6  2  0
  5 36  1  0
  6  7  1  0
  6 41  1  0
  7  8  2  0
  7 42  1  0
  8  9  1  0
  8 35  1  0
  9 10  1  0
  9 43  1  0
 10 11  2  0
 10 12  1  0
 12 13  2  0
 12 20  1  0
 13 14  1  0
 13 18  1  0
 14 15  1  0
 14 44  1  0
 14 45  1  0
 15 16  1  0
 15 27  1  0
 16 17  1  0
 16 46  1  0
 16 47  1  0
 17 18  1  0
 17 48  1  0
 17 49  1  0
 18 19  2  0
 19 20  1  0
 20 21  1  0
 21 22  2  0
 21 26  1  0
 22 23  1  0
 22 50  1  0
 23 24  2  0
 23 51  1  0
 24 25  1  0
 24 52  1  0
 25 26  2  0
 25 53  1  0
 26 54  1  0
 27 28  2  0
 27 29  2  0
 27 30  1  0
 30 31  2  0
 30 34  1  0
 31 32  1  0
 31 55  1  0
 32 33  2  0
 32 56  1  0
 33 34  1  0
 33 57  1  0
 35 36  2  0
 35 58  1  0
 36 59  1  0
M  END
> <Name>
ligand_225

> <activity>
1

$$$$
ligand_226
  SciTegic10272118463D

 39 40  0  0  1  0            999 V2000
    0.6305    0.0094    0.0616 C   0  0
    0.7976    1.3906   -0.0017 C   0  0
   -0.3111    2.2287   -0.0139 C   0  0
   -1.6014    1.7000    0.0269 C   0  0
   -1.8111    0.3019    0.0746 C   0  0
   -0.6682   -0.5228    0.0849 C   0  0
   -2.6339    2.6015    0.0129 O   0  0
    1.8019   -0.7692    0.0569 N   0  0
    1.9797   -2.0216    0.5316 C   0  0
    1.1218   -2.7045    1.0925 O   0  0
    3.3693   -2.5668    0.3369 C   0  0
    3.6016   -3.7277   -0.4259 C   0  0
    4.9052   -4.1925   -0.5918 C   0  0
    5.9721   -3.5103   -0.0134 C   0  0
    5.7511   -2.3572    0.7334 C   0  0
    4.4539   -1.8848    0.9056 C   0  0
    7.5810   -4.0966   -0.2277 Cl  0  0
    2.3234   -4.6139   -1.1929 Cl  0  0
   -3.2441   -0.3179    0.1106 C   0  0
   -4.0077    0.1547    1.3747 C   0  0
   -4.0367    0.0729   -1.1634 C   0  0
   -3.2432   -1.8725    0.1617 C   0  0
    1.7866    1.8254   -0.0344 H   0  0
   -0.1604    3.2977   -0.0558 H   0  0
   -0.7780   -1.5934    0.0938 H   0  0
   -2.3332    3.5119   -0.0213 H   0  0
    2.6201   -0.3082   -0.3118 H   0  0
    5.0906   -5.0834   -1.1742 H   0  0
    6.5818   -1.8295    1.1790 H   0  0
    4.2989   -0.9892    1.4914 H   0  0
   -4.9833   -0.3267    1.4571 H   0  0
   -3.4535   -0.0825    2.2840 H   0  0
   -4.1980    1.2265    1.3827 H   0  0
   -5.0139   -0.4114   -1.1917 H   0  0
   -4.2268    1.1423   -1.2362 H   0  0
   -3.5038   -0.2236   -2.0680 H   0  0
   -4.2567   -2.2758    0.1918 H   0  0
   -2.7622   -2.3088   -0.7151 H   0  0
   -2.7320   -2.2505    1.0486 H   0  0
  1  2  2  0
  1  6  1  0
  1  8  1  0
  2  3  1  0
  2 23  1  0
  3  4  2  0
  3 24  1  0
  4  5  1  0
  4  7  1  0
  5  6  2  0
  5 19  1  0
  6 25  1  0
  7 26  1  0
  8  9  1  0
  8 27  1  0
  9 10  2  0
  9 11  1  0
 11 12  2  0
 11 16  1  0
 12 13  1  0
 12 18  1  0
 13 14  2  0
 13 28  1  0
 14 15  1  0
 14 17  1  0
 15 16  2  0
 15 29  1  0
 16 30  1  0
 19 20  1  0
 19 21  1  0
 19 22  1  0
 20 31  1  0
 20 32  1  0
 20 33  1  0
 21 34  1  0
 21 35  1  0
 21 36  1  0
 22 37  1  0
 22 38  1  0
 22 39  1  0
M  END
> <Name>
ligand_226

> <activity>
1

$$$$
ligand_227
  SciTegic10272118463D

 43 46  0  0  1  0            999 V2000
    0.9369    1.5081    0.7756 C   0  0  1  0  0  0
    1.2940    2.9297    0.4723 N   0  0
    0.5362    1.2842    2.2745 C   0  0
    1.5709    4.8971   -0.5916 N   0  3
    0.9680    3.6622   -0.6623 C   0  0
   -0.3500    1.0453    0.0145 C   0  0
    2.1742    3.7349    1.2013 C   0  0
    0.4477   -0.0142    2.8062 C   0  0
    2.3222    4.9599    0.5639 C   0  0
    2.2447    0.7626    0.3535 C   0  0
   -0.4316   -0.2089   -0.6151 C   0  0
   -1.4700    1.8925   -0.0521 C   0  0
   -2.6716    0.2677   -1.3585 C   0  0
    0.7232   -1.0964    2.0423 F   0  0
   -2.6209    1.5097   -0.7347 C   0  0
   -1.5818   -0.5942   -1.2981 C   0  0
   -3.7889   -0.1064   -2.0214 F   0  0
    0.1711    2.3464    3.1152 C   0  0
    0.0712   -0.2259    4.1263 C   0  0
    2.5289    0.5404   -1.0002 C   0  0
    3.1886    0.3264    1.2924 C   0  0
   -0.2063    2.1320    4.4338 C   0  0
   -0.2489    0.8453    4.9444 C   0  0
    3.6880   -0.1125   -1.3978 C   0  0
    4.3488   -0.3268    0.8971 C   0  0
    4.5980   -0.5510   -0.4483 C   0  0
    0.3519    3.3183   -1.4806 H   0  0
    2.6198    3.3605    2.1117 H   0  0
    2.9003    5.8403    0.8074 H   0  0
    0.3865   -0.9114   -0.5662 H   0  0
   -1.4577    2.8544    0.4395 H   0  0
   -3.4735    2.1714   -0.7765 H   0  0
   -1.6305   -1.5621   -1.7748 H   0  0
    0.1500    3.3641    2.7581 H   0  0
    0.0206   -1.2325    4.5144 H   0  0
    1.8438    0.8825   -1.7621 H   0  0
    3.0431    0.4995    2.3478 H   0  0
   -0.4772    2.9694    5.0603 H   0  0
   -0.5452    0.6766    5.9695 H   0  0
    3.8824   -0.2763   -2.4476 H   0  0
    5.0607   -0.6569    1.6393 H   0  0
    5.5008   -1.0583   -0.7555 H   0  0
    1.4989    5.6285   -1.2864 H   0  0
  1  2  1  0
  1  3  1  0
  1  6  1  0
  1 10  1  0
  2  5  1  0
  2  7  1  0
  3  8  2  0
  3 18  1  0
  4  5  2  0
  4  9  1  0
  4 43  1  0
  5 27  1  0
  6 11  2  0
  6 12  1  0
  7  9  2  0
  7 28  1  0
  8 14  1  0
  8 19  1  0
  9 29  1  0
 10 20  2  0
 10 21  1  0
 11 16  1  0
 11 30  1  0
 12 15  2  0
 12 31  1  0
 13 15  1  0
 13 16  2  0
 13 17  1  0
 15 32  1  0
 16 33  1  0
 18 22  2  0
 18 34  1  0
 19 23  2  0
 19 35  1  0
 20 24  1  0
 20 36  1  0
 21 25  2  0
 21 37  1  0
 22 23  1  0
 22 38  1  0
 23 39  1  0
 24 26  2  0
 24 40  1  0
 25 26  1  0
 25 41  1  0
 26 42  1  0
M  CHG  1   4   1
M  END
> <Name>
ligand_227

> <activity>
1

$$$$
ligand_228
  SciTegic10272118463D

 44 45  0  0  1  0            999 V2000
    0.4304   -0.0095   -0.0862 C   0  0
    0.6134    1.3527   -0.3105 C   0  0
   -0.4822    2.2070   -0.3526 C   0  0
   -1.7753    1.7124   -0.1813 C   0  0
   -2.0018    0.3325    0.0321 C   0  0
   -0.8720   -0.5094    0.0691 C   0  0
   -2.7940    2.6280   -0.2366 O   0  0
    1.5878   -0.8079   -0.0707 N   0  0
    1.7723   -2.0030    0.5286 C   0  0
    0.9457   -2.6089    1.2106 O   0  0
    3.1414   -2.5856    0.3116 C   0  0
    3.3878   -3.4412   -0.7790 C   0  0
    4.6601   -3.9809   -0.9693 C   0  0
    5.7042   -3.6887   -0.0926 C   0  0
    5.4585   -2.8400    0.9926 C   0  0
    4.1930   -2.2902    1.2000 C   0  0
    6.9580   -4.2694   -0.3462 N   0  0
    2.1547   -3.8631   -1.9240 Cl  0  0
   -3.4389   -0.2501    0.2169 C   0  0
   -4.1207    0.3734    1.4621 C   0  0
   -4.2986    0.0152   -1.0458 C   0  0
   -3.4569   -1.7895    0.4390 C   0  0
    3.9835   -1.2475    2.5706 Cl  0  0
    8.1422   -3.8961    0.4156 C   0  0
    1.6050    1.7607   -0.4461 H   0  0
   -0.3190    3.2617   -0.5204 H   0  0
   -0.9957   -1.5701    0.2030 H   0  0
   -2.4824    3.5228   -0.3875 H   0  0
    2.3926   -0.4052   -0.5272 H   0  0
    4.8321   -4.6363   -1.8113 H   0  0
    6.2466   -2.5960    1.6889 H   0  0
    7.0964   -4.7245   -1.2374 H   0  0
   -5.0966   -0.0760    1.6520 H   0  0
   -3.5180    0.2257    2.3593 H   0  0
   -4.2950    1.4433    1.3625 H   0  0
   -5.2826   -0.4492   -0.9654 H   0  0
   -4.4775    1.0739   -1.2253 H   0  0
   -3.8236   -0.3893   -1.9407 H   0  0
   -4.4725   -2.1664    0.5703 H   0  0
   -3.0339   -2.3288   -0.4100 H   0  0
   -2.9006   -2.0787    1.3321 H   0  0
    8.9880   -4.5133    0.1120 H   0  0
    8.4029   -2.8518    0.2396 H   0  0
    7.9888   -4.0462    1.4849 H   0  0
  1  2  2  0
  1  6  1  0
  1  8  1  0
  2  3  1  0
  2 25  1  0
  3  4  2  0
  3 26  1  0
  4  5  1  0
  4  7  1  0
  5  6  2  0
  5 19  1  0
  6 27  1  0
  7 28  1  0
  8  9  1  0
  8 29  1  0
  9 10  2  0
  9 11  1  0
 11 12  2  0
 11 16  1  0
 12 13  1  0
 12 18  1  0
 13 14  2  0
 13 30  1  0
 14 15  1  0
 14 17  1  0
 15 16  2  0
 15 31  1  0
 16 23  1  0
 17 24  1  0
 17 32  1  0
 19 20  1  0
 19 21  1  0
 19 22  1  0
 20 33  1  0
 20 34  1  0
 20 35  1  0
 21 36  1  0
 21 37  1  0
 21 38  1  0
 22 39  1  0
 22 40  1  0
 22 41  1  0
 24 42  1  0
 24 43  1  0
 24 44  1  0
M  END
> <Name>
ligand_228

> <activity>
1

$$$$
ligand_229
  SciTegic10272118463D

 68 72  0  0  1  0            999 V2000
   15.1490   -4.7626    0.1916 N   0  0
   14.5345   -4.3940    1.4856 C   0  0
   15.6004   -4.1722    2.5790 C   0  0
   16.6095   -3.0747    2.1703 C   0  0
   17.1563   -3.3781    0.7601 C   0  0
   16.0145   -3.6476   -0.2426 C   0  0
   17.7671   -2.9292    3.1773 C   0  0
   18.0983   -3.8353    3.9418 O   0  0
   18.4775   -1.5807    3.2222 C   0  0
   13.5591   -4.3521   -6.0522 C   0  0
   12.7182   -3.8956   -5.0374 C   0  0
   12.9683   -4.1677   -3.6902 C   0  0
   14.6963   -5.1067   -5.7639 C   0  0
   14.9743   -5.3984   -4.4209 C   0  0
   14.1099   -4.9279   -3.4006 C   0  0
   14.6828   -5.3959   -2.2278 N   0  0
   15.8185   -6.1090   -2.6023 C   0  0
   16.0171   -6.1102   -3.8979 N   0  0
   14.1573   -5.1476   -0.8709 C   0  0  1  0  0  0
   13.2883   -6.3807   -0.4752 C   0  0
   12.1345   -6.5245   -1.1536 N   0  0
   13.6618   -7.1754    0.3906 O   0  0
   16.7614   -6.7916   -1.6720 C   0  0
   11.1982   -7.6379   -1.0021 C   0  0
   16.3751   -7.9473   -0.9897 C   0  0
   17.2590   -8.5650   -0.1093 C   0  0
   18.5333   -8.0322    0.0774 C   0  0
   18.9327   -6.8916   -0.6167 C   0  0
   18.0479   -6.2745   -1.4968 C   0  0
    9.7891   -7.2882   -1.5345 C   0  0
    8.7837   -8.4448   -1.3633 C   0  0
    9.3032   -9.7526   -1.9884 C   0  0
   10.6974  -10.1227   -1.4496 C   0  0
   11.7041   -8.9674   -1.6191 C   0  0
   19.6278   -8.7944    1.1725 Cl  0  0
   13.9299   -3.4937    1.3609 H   0  0
   13.8549   -5.1684    1.8378 H   0  0
   15.1066   -3.9005    3.5132 H   0  0
   16.1085   -5.1217    2.7620 H   0  0
   16.0796   -2.1217    2.1430 H   0  0
   17.7570   -2.5434    0.3956 H   0  0
   17.8163   -4.2482    0.7820 H   0  0
   16.4628   -3.8589   -1.2124 H   0  0
   15.4116   -2.7474   -0.3773 H   0  0
   19.2627   -1.5856    3.9787 H   0  0
   18.9330   -1.3585    2.2575 H   0  0
   17.7705   -0.7882    3.4670 H   0  0
   13.3252   -4.1160   -7.0801 H   0  0
   11.8475   -3.3133   -5.3020 H   0  0
   12.3043   -3.8036   -2.9205 H   0  0
   15.3429   -5.4557   -6.5554 H   0  0
   13.4656   -4.3097   -0.9814 H   0  0
   11.9070   -5.8455   -1.8651 H   0  0
   11.0902   -7.7929    0.0750 H   0  0
   15.3920   -8.3682   -1.1402 H   0  0
   16.9552   -9.4532    0.4248 H   0  0
   19.9230   -6.4850   -0.4729 H   0  0
   18.3568   -5.3879   -2.0316 H   0  0
    9.4086   -6.4006   -1.0267 H   0  0
    9.8553   -7.0242   -2.5915 H   0  0
    8.5909   -8.6028   -0.3010 H   0  0
    7.8254   -8.1744   -1.8086 H   0  0
    8.6005  -10.5641   -1.7950 H   0  0
    9.3507   -9.6428   -3.0730 H   0  0
   10.6199  -10.3822   -0.3925 H   0  0
   11.0670  -11.0159   -1.9549 H   0  0
   11.9077   -8.8188   -2.6809 H   0  0
   12.6564   -9.2533   -1.1702 H   0  0
  1  2  1  0
  1  6  1  0
  1 19  1  0
  2  3  1  0
  2 36  1  0
  2 37  1  0
  3  4  1  0
  3 38  1  0
  3 39  1  0
  4  5  1  0
  4  7  1  0
  4 40  1  0
  5  6  1  0
  5 41  1  0
  5 42  1  0
  6 43  1  0
  6 44  1  0
  7  8  2  0
  7  9  1  0
  9 45  1  0
  9 46  1  0
  9 47  1  0
 10 11  2  0
 10 13  1  0
 10 48  1  0
 11 12  1  0
 11 49  1  0
 12 15  2  0
 12 50  1  0
 13 14  2  0
 13 51  1  0
 14 15  1  0
 14 18  1  0
 15 16  1  0
 16 17  1  0
 16 19  1  0
 17 18  2  0
 17 23  1  0
 19 20  1  0
 19 52  1  0
 20 21  1  0
 20 22  2  0
 21 24  1  0
 21 53  1  0
 23 25  2  0
 23 29  1  0
 24 30  1  0
 24 34  1  0
 24 54  1  0
 25 26  1  0
 25 55  1  0
 26 27  2  0
 26 56  1  0
 27 28  1  0
 27 35  1  0
 28 29  2  0
 28 57  1  0
 29 58  1  0
 30 31  1  0
 30 59  1  0
 30 60  1  0
 31 32  1  0
 31 61  1  0
 31 62  1  0
 32 33  1  0
 32 63  1  0
 32 64  1  0
 33 34  1  0
 33 65  1  0
 33 66  1  0
 34 67  1  0
 34 68  1  0
M  END
> <Name>
ligand_229

> <activity>
1

$$$$
ligand_230
  SciTegic10272118463D

 58 60  0  0  1  0            999 V2000
   15.9716   -8.0150   -1.0087 C   0  0
   13.7059   -7.9664    0.1261 C   0  0
   11.2903   -6.5223    0.3414 C   0  0
   17.3030   -0.1569    0.2733 O   0  0
   10.0647   -4.4484    0.1648 N   0  0
    6.7230   -2.8003   -0.0397 C   0  0
    9.4072   -2.1063    0.4164 C   0  0
    8.9545   -6.3568    0.7772 O   0  0
    8.3938   -1.1335    0.4154 C   0  0
   11.2839   -7.8630   -0.0572 C   0  0
   12.4753   -8.5751   -0.1652 C   0  0
   13.7038   -6.6245    0.5318 C   0  0
   12.5591    1.3779   -0.3591 C   0  0
   14.9680    1.3367   -0.1944 C   0  0
    9.0532   -3.4609    0.1989 C   0  0
   12.5148   -5.9102    0.6412 C   0  0
   14.9481   -0.0358    0.1026 C   0  0
    9.9871   -5.7666    0.4538 C   0  0
    7.0569   -1.4604    0.1933 C   0  0
   16.2249   -0.7917    0.3355 C   0  0
   14.8937  -10.1982   -0.4481 C   0  0
   15.0533   -8.7256    0.0164 C   0  0
   11.2322   -0.5765   -0.0177 N   0  0
   13.7847    2.0359   -0.4262 C   0  0
    7.7074   -3.7842   -0.0414 C   0  0
   15.7532   -8.7498    1.3978 C   0  0
   13.7031   -0.6845    0.1696 C   0  0
   12.5058    0.0182   -0.0475 C   0  0
   16.1468   -2.0182    0.5783 O   0  5
   10.8376   -1.6725    0.6686 C   0  0
   11.5539   -2.3128    1.4408 O   0  0
    6.1495   -0.4190    0.2165 O   0  0
    4.7701   -0.6967    0.0005 C   0  0
   16.9224   -8.5370   -1.1264 H   0  0
   15.5049   -7.9661   -1.9937 H   0  0
   16.2094   -6.9931   -0.7116 H   0  0
   10.9920   -4.0896   -0.0082 H   0  0
    5.7031   -3.0990   -0.2278 H   0  0
    8.6351   -0.0954    0.5983 H   0  0
   10.3547   -8.3642   -0.2905 H   0  0
   12.4141   -9.6052   -0.4795 H   0  0
   14.6296   -6.1215    0.7690 H   0  0
   11.6519    1.9355   -0.5445 H   0  0
   15.9037    1.8746   -0.2555 H   0  0
   12.5624   -4.8806    0.9675 H   0  0
   14.2834  -10.7782    0.2458 H   0  0
   14.4328  -10.2642   -1.4348 H   0  0
   15.8582  -10.7038   -0.5168 H   0  0
   10.5246   -0.0959   -0.5527 H   0  0
   13.8188    3.0897   -0.6604 H   0  0
    7.4015   -4.7972   -0.2522 H   0  0
   15.1289   -9.2322    2.1514 H   0  0
   16.6968   -9.2961    1.3609 H   0  0
   15.9843   -7.7479    1.7611 H   0  0
   13.6748   -1.7444    0.3750 H   0  0
    4.2032    0.2324    0.0574 H   0  0
    4.5983   -1.1271   -0.9873 H   0  0
    4.3735   -1.3715    0.7607 H   0  0
  1 22  1  0
  1 34  1  0
  1 35  1  0
  1 36  1  0
  2 11  2  0
  2 22  1  0
  2 12  1  0
  3 16  1  0
  3 10  2  0
  3 18  1  0
  4 20  2  0
  5 15  1  0
  5 18  1  0
  5 37  1  0
  6 25  1  0
  6 19  2  0
  6 38  1  0
  7  9  2  0
  7 15  1  0
  7 30  1  0
  8 18  2  0
  9 19  1  0
  9 39  1  0
 10 11  1  0
 10 40  1  0
 11 41  1  0
 12 16  2  0
 12 42  1  0
 13 28  1  0
 13 24  2  0
 13 43  1  0
 14 17  2  0
 14 24  1  0
 14 44  1  0
 15 25  2  0
 16 45  1  0
 17 27  1  0
 17 20  1  0
 19 32  1  0
 20 29  1  0
 21 22  1  0
 21 46  1  0
 21 47  1  0
 21 48  1  0
 22 26  1  0
 23 28  1  0
 23 30  1  0
 23 49  1  0
 24 50  1  0
 25 51  1  0
 26 52  1  0
 26 53  1  0
 26 54  1  0
 27 28  2  0
 27 55  1  0
 30 31  2  0
 32 33  1  0
 33 56  1  0
 33 57  1  0
 33 58  1  0
M  CHG  1  29  -1
M  END
> <Name>
ligand_230

> <activity>
1

$$$$
ligand_231
  SciTegic10272118463D

 44 45  0  0  1  0            999 V2000
    0.8351   -0.2304   -0.1150 C   0  0
    1.0210    1.1297   -0.3402 C   0  0
   -0.0747    1.9805   -0.4073 C   0  0
   -1.3804    1.4941   -0.2468 C   0  0
   -1.6018    0.1059   -0.0639 C   0  0
   -0.4696   -0.7314    0.0036 C   0  0
   -2.4304    2.3872   -0.3387 O   0  0
    1.9930   -1.0271   -0.0691 N   0  0
    2.1668   -2.2201    0.5406 C   0  0
    1.3175   -2.8169    1.2035 O   0  0
    3.5399   -2.8117    0.3652 C   0  0
    3.7270   -4.0565   -0.2664 C   0  0
    5.0165   -4.5634   -0.4195 C   0  0
    6.1135   -3.8412    0.0422 C   0  0
    5.9369   -2.6061    0.6585 C   0  0
    4.6542   -2.0912    0.8168 C   0  0
    7.7043   -4.4804   -0.1549 Cl  0  0
    2.4090   -4.9986   -0.8852 Cl  0  0
   -3.0396   -0.4977    0.0503 C   0  0
   -3.7610    0.0458    1.3091 C   0  0
   -3.8730   -0.1749   -1.2177 C   0  0
   -3.0492   -2.0481    0.1840 C   0  0
   -2.5759    3.3899    0.5744 C   0  0
   -1.8667    3.6039    1.5594 O   0  0
   -3.7780    4.2716    0.2648 C   0  0
    2.0141    1.5396   -0.4577 H   0  0
    0.0916    3.0342   -0.5789 H   0  0
   -0.5912   -1.7933    0.1270 H   0  0
    2.8053   -0.6270   -0.5142 H   0  0
    5.1673   -5.5185   -0.9015 H   0  0
    6.7908   -2.0478    1.0138 H   0  0
    4.5339   -1.1316    1.3007 H   0  0
   -4.7185   -0.4520    1.4697 H   0  0
   -3.1625   -0.1085    2.2082 H   0  0
   -3.9851    1.1076    1.2449 H   0  0
   -4.8441   -0.6718   -1.1963 H   0  0
   -4.0840    0.8862   -1.3354 H   0  0
   -3.3620   -0.5069   -2.1226 H   0  0
   -4.0647   -2.4423    0.2492 H   0  0
   -2.5828   -2.5338   -0.6746 H   0  0
   -2.5306   -2.3834    1.0836 H   0  0
   -3.8814    5.0573    1.0134 H   0  0
   -3.6618    4.7392   -0.7128 H   0  0
   -4.6913    3.6767    0.2607 H   0  0
  1  2  2  0
  1  6  1  0
  1  8  1  0
  2  3  1  0
  2 26  1  0
  3  4  2  0
  3 27  1  0
  4  5  1  0
  4  7  1  0
  5  6  2  0
  5 19  1  0
  6 28  1  0
  7 23  1  0
  8  9  1  0
  8 29  1  0
  9 10  2  0
  9 11  1  0
 11 12  2  0
 11 16  1  0
 12 13  1  0
 12 18  1  0
 13 14  2  0
 13 30  1  0
 14 15  1  0
 14 17  1  0
 15 16  2  0
 15 31  1  0
 16 32  1  0
 19 20  1  0
 19 21  1  0
 19 22  1  0
 20 33  1  0
 20 34  1  0
 20 35  1  0
 21 36  1  0
 21 37  1  0
 21 38  1  0
 22 39  1  0
 22 40  1  0
 22 41  1  0
 23 24  2  0
 23 25  1  0
 25 42  1  0
 25 43  1  0
 25 44  1  0
M  END
> <Name>
ligand_231

> <activity>
1

$$$$
ligand_232
  SciTegic10272118463D

 46 45  0  0  1  0            999 V2000
   16.2564  -14.7867    0.3129 C   0  0
   17.4564  -14.1425    0.2227 C   0  0
   15.1853  -15.3678    0.3946 C   0  0
   18.5328  -13.5711    0.1433 C   0  0
    9.8855  -23.5170    2.6716 C   0  0
   13.9015  -15.9807    0.4997 C   0  0
   13.7086  -17.3113    0.5349 C   0  0
   12.3938  -17.9144    0.6422 C   0  0
   12.1983  -19.2443    0.6779 C   0  0
   10.8841  -19.8473    0.7855 C   0  0
   10.8152  -24.0700    2.0839 O   0  0
    9.1386  -22.4774    2.2125 O   0  0
   10.6899  -21.1769    0.8207 C   0  0
    9.3266  -21.8498    0.9337 C   0  0  1  0  0  0
   19.8362  -12.8899    0.0566 C   0  0
   23.4523  -13.9867    0.3705 O   0  0
    9.4479  -23.9691    4.0578 C   0  0
   22.3867  -13.0824    0.1701 C   0  0
    9.0086  -22.7878   -0.2563 C   0  0
   21.0437  -13.8236    0.2669 C   0  0
    7.5676  -23.3324   -0.2455 C   0  0
    7.2600  -24.2294   -1.4520 C   0  0
   13.0496  -15.3177    0.5526 H   0  0
   14.5687  -17.9662    0.4812 H   0  0
   11.5322  -17.2626    0.6960 H   0  0
   13.0594  -19.8966    0.6243 H   0  0
   10.0203  -19.1992    0.8404 H   0  0
   11.5411  -21.8411    0.7675 H   0  0
    8.5881  -21.0473    0.9062 H   0  0
   19.8901  -12.4120   -0.9224 H   0  0
   19.8375  -12.0919    0.8000 H   0  0
   24.2806  -13.5052    0.3062 H   0  0
   10.0622  -24.8012    4.4022 H   0  0
    9.5450  -23.1502    4.7703 H   0  0
    8.4075  -24.2932    4.0381 H   0  0
   22.5021  -12.6133   -0.8078 H   0  0
   22.4496  -12.2924    0.9196 H   0  0
    9.1659  -22.2385   -1.1859 H   0  0
    9.7152  -23.6182   -0.2830 H   0  0
   20.9700  -14.3063    1.2437 H   0  0
   21.0224  -14.6256   -0.4740 H   0  0
    7.3936  -23.8992    0.6702 H   0  0
    6.8616  -22.5009   -0.2284 H   0  0
    6.2343  -24.5972   -1.4122 H   0  0
    7.3804  -23.6869   -2.3903 H   0  0
    7.9210  -25.0964   -1.4792 H   0  0
  1  2  1  0
  1  3  3  0
  2  4  3  0
  3  6  1  0
  4 15  1  0
  5 11  2  0
  5 12  1  0
  5 17  1  0
  6  7  2  0
  6 23  1  0
  7  8  1  0
  7 24  1  0
  8  9  2  0
  8 25  1  0
  9 10  1  0
  9 26  1  0
 10 13  2  0
 10 27  1  0
 12 14  1  0
 13 14  1  0
 13 28  1  0
 14 19  1  0
 14 29  1  0
 15 20  1  0
 15 30  1  0
 15 31  1  0
 16 18  1  0
 16 32  1  0
 17 33  1  0
 17 34  1  0
 17 35  1  0
 18 20  1  0
 18 36  1  0
 18 37  1  0
 19 21  1  0
 19 38  1  0
 19 39  1  0
 20 40  1  0
 20 41  1  0
 21 22  1  0
 21 42  1  0
 21 43  1  0
 22 44  1  0
 22 45  1  0
 22 46  1  0
M  END
> <Name>
ligand_232

> <activity>
1

$$$$
ligand_233
  SciTegic10272118463D

 66 67  0  0  1  0            999 V2000
    5.8507   -9.9849   -0.6268 C   0  0
    6.6734  -10.0868   -1.7500 C   0  0
    7.5412   -9.0443   -2.0793 C   0  0
    5.8891   -8.8416    0.1788 C   0  0
    6.7680   -7.8011   -0.1503 C   0  0
    7.5861   -7.8983   -1.2825 C   0  0
    8.4775   -6.7890   -1.5900 C   0  0
    8.6117   -5.7628   -0.7412 C   0  0
    7.8607   -5.7206    0.5968 C   0  0  2  0  0  0
    6.7607   -6.6691    0.6546 O   0  0
    6.6255  -11.2121   -2.5290 O   0  0
    4.9870   -8.7412    1.3988 C   0  0
    7.2122   -4.3288    0.7206 C   0  0
    8.8693   -6.0983    1.7118 C   0  0
    8.2812   -6.1340    3.1364 C   0  0
    9.2938   -6.5598    4.1876 C   0  0
    9.9745   -5.7738    5.0504 C   0  0
    9.8639   -4.2543    5.1024 C   0  0
   10.9327   -6.3796    6.0702 C   0  0
   12.4212   -6.1611    5.7455 C   0  0
   13.3561   -6.8200    6.7509 C   0  0
   14.0722   -7.9636    6.6165 C   0  0
   15.0005   -8.4343    7.7390 C   0  0
   14.0064   -8.8627    5.3448 C   0  0
   12.8616   -9.0479    4.8733 O   0  0
   15.1061   -9.3371    4.9815 O   0  5
   14.6018   -9.7787    8.3774 C   0  0
   15.5307  -10.2081    9.5019 C   0  0
   15.3105  -10.1239   10.8317 C   0  0
   16.3367  -10.6255   11.8335 C   0  0
   14.0644   -9.5217   11.4661 C   0  0
    5.1813  -10.7976   -0.3837 H   0  0
    8.1761   -9.1244   -2.9500 H   0  0
    9.0344   -6.7839   -2.5162 H   0  0
    9.2978   -4.9683   -0.9966 H   0  0
    7.2328  -11.1822   -3.2714 H   0  0
    5.5857   -8.6179    2.3018 H   0  0
    4.3237   -7.8804    1.3087 H   0  0
    4.3686   -9.6308    1.5244 H   0  0
    6.6135   -4.2473    1.6278 H   0  0
    7.9629   -3.5382    0.7520 H   0  0
    6.5470   -4.1234   -0.1193 H   0  0
    9.2982   -7.0776    1.4899 H   0  0
    9.7054   -5.3966    1.6967 H   0  0
    7.8468   -5.1697    3.3921 H   0  0
    7.4541   -6.8435    3.1796 H   0  0
    9.4600   -7.6273    4.2295 H   0  0
    9.4445   -3.9426    6.0592 H   0  0
   10.8477   -3.7971    5.0003 H   0  0
    9.2417   -3.8355    4.3141 H   0  0
   10.6994   -5.9714    7.0547 H   0  0
   10.7490   -7.4534    6.1451 H   0  0
   12.6335   -6.5118    4.7354 H   0  0
   12.6540   -5.0963    5.7373 H   0  0
   13.4495   -6.2689    7.6758 H   0  0
   16.0168   -8.4977    7.3463 H   0  0
   15.0411   -7.6750    8.5222 H   0  0
   13.5698   -9.7315    8.7226 H   0  0
   14.6178  -10.5695    7.6264 H   0  0
   16.4627  -10.6376    9.1623 H   0  0
   16.6682   -9.8109   12.4781 H   0  0
   15.9030  -11.4046   12.4611 H   0  0
   17.2179  -11.0429   11.3441 H   0  0
   13.4856  -10.2988   11.9658 H   0  0
   14.3460   -8.7778   12.2120 H   0  0
   13.4119   -9.0225   10.7520 H   0  0
  1  2  1  0
  1  4  2  0
  1 32  1  0
  2  3  2  0
  2 11  1  0
  3  6  1  0
  3 33  1  0
  4  5  1  0
  4 12  1  0
  5  6  2  0
  5 10  1  0
  6  7  1  0
  7  8  2  0
  7 34  1  0
  8  9  1  0
  8 35  1  0
  9 10  1  0
  9 13  1  0
  9 14  1  0
 11 36  1  0
 12 37  1  0
 12 38  1  0
 12 39  1  0
 13 40  1  0
 13 41  1  0
 13 42  1  0
 14 15  1  0
 14 43  1  0
 14 44  1  0
 15 16  1  0
 15 45  1  0
 15 46  1  0
 16 17  2  0
 16 47  1  0
 17 18  1  0
 17 19  1  0
 18 48  1  0
 18 49  1  0
 18 50  1  0
 19 20  1  0
 19 51  1  0
 19 52  1  0
 20 21  1  0
 20 53  1  0
 20 54  1  0
 21 22  2  0
 21 55  1  0
 22 23  1  0
 22 24  1  0
 23 27  1  0
 23 56  1  0
 23 57  1  0
 24 25  2  0
 24 26  1  0
 27 28  1  0
 27 58  1  0
 27 59  1  0
 28 29  2  0
 28 60  1  0
 29 30  1  0
 29 31  1  0
 30 61  1  0
 30 62  1  0
 30 63  1  0
 31 64  1  0
 31 65  1  0
 31 66  1  0
M  CHG  1  26  -1
M  END
> <Name>
ligand_233

> <activity>
1

$$$$
ligand_234
  SciTegic10272118463D

 59 63  0  0  1  0            999 V2000
    1.4508    1.9919    1.3351 O   0  0
    0.8131    1.2531    0.5830 C   0  0
   -0.2006    1.6659   -0.2020 N   0  0
   -0.7945    3.0028   -0.2144 C   0  0
   -1.6130    3.2593   -1.5013 C   0  0
   -2.2336    4.6701   -1.5414 C   0  0
   -3.0730    4.9622   -0.2841 C   0  0
   -2.2609    4.7321    1.0036 C   0  0
   -1.6395    3.3220    1.0458 C   0  0
    1.1444   -0.1391    0.4104 N   0  0
    2.4177   -0.6770    0.5656 C   0  0
    3.6896    0.0863    0.9403 C   0  0
    4.8150   -0.8576    1.1830 N   0  0
    4.9088   -2.0093    0.2486 C   0  0
    3.6484   -2.9036    0.3027 C   0  0
    2.3984   -2.0353    0.2535 C   0  0
    1.0811   -2.3335   -0.0748 C   0  0
    0.3011   -1.1923    0.0425 C   0  0
   -1.1766   -1.1178   -0.1711 C   0  0
   -1.7220   -1.5102   -1.3911 C   0  0
   -3.0933   -1.4367   -1.6022 C   0  0
   -3.9290   -0.9776   -0.5925 C   0  0
   -3.3937   -0.5976    0.6312 C   0  0
   -2.0230   -0.6729    0.8434 C   0  0
    6.3374   -0.1435    1.7452 S   0  0
    6.0416    0.9078    2.7256 O   0  0
    7.2936   -1.2195    2.0309 O   0  0
    6.9035    0.6838    0.2391 C   0  0
    6.6422    2.0053   -0.1035 C   0  0
    7.1947    2.3596   -1.3389 C   0  0
    7.8738    1.3084   -1.9410 C   0  0
    7.8325   -0.1346   -0.9789 S   0  0
   -0.6504    0.9796   -0.7907 H   0  0
    0.0481    3.6991   -0.2355 H   0  0
   -0.9815    3.1173   -2.3797 H   0  0
   -2.4081    2.5154   -1.5802 H   0  0
   -1.4388    5.4128   -1.6269 H   0  0
   -2.8499    4.7807   -2.4345 H   0  0
   -3.4451    5.9871   -0.3130 H   0  0
   -3.9538    4.3180   -0.2778 H   0  0
   -1.4677    5.4785    1.0699 H   0  0
   -2.8959    4.8855    1.8770 H   0  0
   -2.4345    2.5809    1.1457 H   0  0
   -1.0276    3.2266    1.9440 H   0  0
    3.9767    0.7391    0.1156 H   0  0
    3.5761    0.7102    1.8268 H   0  0
    5.0704   -1.6077   -0.7527 H   0  0
    5.7900   -2.6002    0.4995 H   0  0
    3.6703   -3.6294   -0.5105 H   0  0
    3.6542   -3.4842    1.2259 H   0  0
    0.7178   -3.3108   -0.3570 H   0  0
   -1.0808   -1.8662   -2.1849 H   0  0
   -3.5097   -1.7364   -2.5528 H   0  0
   -4.9949   -0.9195   -0.7575 H   0  0
   -4.0430   -0.2439    1.4186 H   0  0
   -1.6163   -0.3742    1.7989 H   0  0
    6.0738    2.6835    0.5164 H   0  0
    7.1021    3.3425   -1.7770 H   0  0
    8.3873    1.3140   -2.8911 H   0  0
  1  2  2  0
  2  3  1  0
  2 10  1  0
  3  4  1  0
  3 33  1  0
  4  5  1  0
  4  9  1  0
  4 34  1  0
  5  6  1  0
  5 35  1  0
  5 36  1  0
  6  7  1  0
  6 37  1  0
  6 38  1  0
  7  8  1  0
  7 39  1  0
  7 40  1  0
  8  9  1  0
  8 41  1  0
  8 42  1  0
  9 43  1  0
  9 44  1  0
 10 11  1  0
 10 18  1  0
 11 12  1  0
 11 16  2  0
 12 13  1  0
 12 45  1  0
 12 46  1  0
 13 14  1  0
 13 25  1  0
 14 15  1  0
 14 47  1  0
 14 48  1  0
 15 16  1  0
 15 49  1  0
 15 50  1  0
 16 17  1  0
 17 18  2  0
 17 51  1  0
 18 19  1  0
 19 20  2  0
 19 24  1  0
 20 21  1  0
 20 52  1  0
 21 22  2  0
 21 53  1  0
 22 23  1  0
 22 54  1  0
 23 24  2  0
 23 55  1  0
 24 56  1  0
 25 26  2  0
 25 27  2  0
 25 28  1  0
 28 29  2  0
 28 32  1  0
 29 30  1  0
 29 57  1  0
 30 31  2  0
 30 58  1  0
 31 32  1  0
 31 59  1  0
M  END
> <Name>
ligand_234

> <activity>
1

$$$$
ligand_235
  SciTegic10272118463D

 63 67  0  0  1  0            999 V2000
    6.3487    2.2922    2.2465 C   0  0
    7.6154    3.3822    1.3724 S   0  0
    8.8774    2.6484    1.2388 O   0  0
    7.6138    4.6647    2.0860 O   0  0
    6.9758    3.6912   -0.3004 C   0  0
    6.8372    5.0379   -0.6577 C   0  0
    6.3852    5.4244   -1.9112 C   0  0
    6.0562    4.4676   -2.8536 C   0  0
    6.1835    3.1273   -2.5242 C   0  0
    6.6389    2.7112   -1.2661 C   0  0
    6.6765    0.9139   -1.0173 S   0  0
    7.8056    0.5813   -0.1450 O   0  0
    6.5850    0.2713   -2.3343 O   0  0
    5.1809    0.5223   -0.1516 N   0  0
    5.1587   -0.8140    0.4963 C   0  0
    3.9686   -0.9711    1.4669 C   0  0
    2.5947   -0.5826    0.8448 C   0  0
    2.6922    0.7791    0.0941 C   0  0
    3.9175    0.8940   -0.8384 C   0  0
    2.0957   -1.6947   -0.1103 C   0  0
    2.6525   -2.0469   -1.1524 O   0  0
    0.9458   -2.1834    0.4195 N   0  0
    0.1807   -3.2375   -0.2599 C   0  0
   -1.0862   -2.7306   -0.9353 C   0  0
   -2.3378   -3.0979   -0.4416 C   0  0
   -3.4944   -2.6445   -1.0700 C   0  0
   -3.4180   -1.8247   -2.2069 C   0  0
   -2.1514   -1.4748   -2.7005 C   0  0
   -0.9946   -1.9279   -2.0726 C   0  0
   -4.6664   -1.3345   -2.8835 C   0  0
   -5.7704   -1.6786   -2.4016 O   0  0
   -4.5403   -0.6062   -3.8949 O   0  5
    0.5708   -1.5101    1.5825 C   0  0
   -0.5521   -1.6965    2.3932 C   0  0
   -0.7167   -0.8961    3.5254 C   0  0
    0.2348    0.0773    3.8411 C   0  0
    0.0061    1.1642    5.3865 Br  0  0
    1.3542    0.2539    3.0246 C   0  0
    1.5158   -0.5478    1.8907 C   0  0
    6.5228    1.2521    1.9875 H   0  0
    6.4839    2.4084    3.3211 H   0  0
    5.3445    2.6063    1.9642 H   0  0
    7.0905    5.8227    0.0391 H   0  0
    6.2927    6.4734   -2.1519 H   0  0
    5.7017    4.7606   -3.8311 H   0  0
    5.9063    2.4034   -3.2761 H   0  0
    5.1309   -1.5654   -0.2940 H   0  0
    6.0987   -0.9580    1.0296 H   0  0
    3.9485   -1.9884    1.8629 H   0  0
    4.1582   -0.3339    2.3325 H   0  0
    1.7799    0.9836   -0.4702 H   0  0
    2.7572    1.5841    0.8281 H   0  0
    4.0084    1.9158   -1.2056 H   0  0
    3.8136    0.2538   -1.7153 H   0  0
    0.7856   -3.7289   -1.0243 H   0  0
   -0.0766   -4.0071    0.4689 H   0  0
   -2.4199   -3.7323    0.4288 H   0  0
   -4.4517   -2.9396   -0.6636 H   0  0
   -2.0515   -0.8492   -3.5764 H   0  0
   -0.0283   -1.6503   -2.4685 H   0  0
   -1.2934   -2.4467    2.1639 H   0  0
   -1.5814   -1.0314    4.1583 H   0  0
    2.0836    1.0094    3.2775 H   0  0
  1  2  1  0
  1 40  1  0
  1 41  1  0
  1 42  1  0
  2  3  2  0
  2  4  2  0
  2  5  1  0
  5  6  2  0
  5 10  1  0
  6  7  1  0
  6 43  1  0
  7  8  2  0
  7 44  1  0
  8  9  1  0
  8 45  1  0
  9 10  2  0
  9 46  1  0
 10 11  1  0
 11 12  2  0
 11 13  2  0
 11 14  1  0
 14 15  1  0
 14 19  1  0
 15 16  1  0
 15 47  1  0
 15 48  1  0
 16 17  1  0
 16 49  1  0
 16 50  1  0
 17 18  1  0
 17 20  1  0
 17 39  1  0
 18 19  1  0
 18 51  1  0
 18 52  1  0
 19 53  1  0
 19 54  1  0
 20 21  2  0
 20 22  1  0
 22 23  1  0
 22 33  1  0
 23 24  1  0
 23 55  1  0
 23 56  1  0
 24 25  2  0
 24 29  1  0
 25 26  1  0
 25 57  1  0
 26 27  2  0
 26 58  1  0
 27 28  1  0
 27 30  1  0
 28 29  2  0
 28 59  1  0
 29 60  1  0
 30 31  2  0
 30 32  1  0
 33 34  2  0
 33 39  1  0
 34 35  1  0
 34 61  1  0
 35 36  2  0
 35 62  1  0
 36 37  1  0
 36 38  1  0
 38 39  2  0
 38 63  1  0
M  CHG  1  32  -1
M  END
> <Name>
ligand_235

> <activity>
1

$$$$
ligand_236
  SciTegic10272118463D

 57 61  0  0  1  0            999 V2000
   -2.8978    7.2456    1.4171 N   0  0
   -2.7696    6.7091   -0.2457 S   0  0
   -4.1305    6.4782   -0.7426 O   0  0
   -1.8606    7.6313   -0.9343 O   0  0
   -1.9342    5.1273   -0.1584 C   0  0
   -2.5505    3.9722   -0.6436 C   0  0
   -1.8872    2.7506   -0.5684 C   0  0
   -0.6123    2.6766   -0.0027 C   0  0
   -0.0176    1.4040    0.0201 N   0  0
    0.9604    0.9402    0.8291 C   0  0
    1.5382    1.5964    1.6963 O   0  0
    1.3286   -0.4393    0.5873 C   0  0
    2.5761   -1.0294    0.7889 C   0  0
    3.9153   -0.4769    1.2612 C   0  0
    5.0167   -1.4222    0.9361 N   0  0
    4.7424   -2.8540    1.2210 C   0  0
    3.5384   -3.3955    0.4135 C   0  0
    2.4069   -2.3764    0.4242 C   0  0
    1.1735   -2.6424    0.0743 N   0  0
    0.5000   -1.4878    0.2012 N   0  0
   -0.8941   -1.5051   -0.0361 C   0  0
   -1.3947   -1.9850   -1.2467 C   0  0
   -2.7641   -1.9891   -1.4809 C   0  0
   -3.6385   -1.5199   -0.5088 C   0  0
   -3.1453   -1.0500    0.7017 C   0  0
   -1.7770   -1.0453    0.9412 C   0  0
    6.6659   -0.8351    1.2026 S   0  0
    6.7213   -0.1259    2.4863 O   0  0
    7.6184   -1.9008    0.8705 O   0  0
    6.7986    0.4035   -0.1060 C   0  0
    7.1333    1.7404    0.0723 C   0  0
    7.1580    2.4519   -1.1322 C   0  0
    6.8478    1.6573   -2.2282 C   0  0
    6.5224    0.0143   -1.7754 S   0  0
    0.0097    3.8421    0.4702 C   0  0
   -0.6542    5.0634    0.3937 C   0  0
   -3.4975    6.6484    1.9920 H   0  0
   -1.9930    7.4190    1.8616 H   0  0
   -3.5382    4.0139   -1.0790 H   0  0
   -2.3746    1.8626   -0.9462 H   0  0
   -0.4280    0.7367   -0.6160 H   0  0
    4.1459    0.4964    0.8272 H   0  0
    3.9005   -0.3424    2.3433 H   0  0
    5.6308   -3.4420    0.9901 H   0  0
    4.5757   -2.9447    2.2954 H   0  0
    3.8492   -3.5775   -0.6159 H   0  0
    3.2278   -4.3616    0.8124 H   0  0
   -0.7239   -2.3502   -2.0116 H   0  0
   -3.1495   -2.3576   -2.4204 H   0  0
   -4.7029   -1.5238   -0.6929 H   0  0
   -3.8264   -0.6892    1.4585 H   0  0
   -1.4064   -0.6792    1.8883 H   0  0
    7.3480    2.1820    1.0346 H   0  0
    7.3939    3.5036   -1.2021 H   0  0
    6.7979    1.9555   -3.2651 H   0  0
    1.0062    3.8259    0.8837 H   0  0
   -0.1700    5.9586    0.7564 H   0  0
  1  2  1  0
  1 37  1  0
  1 38  1  0
  2  3  2  0
  2  4  2  0
  2  5  1  0
  5  6  2  0
  5 36  1  0
  6  7  1  0
  6 39  1  0
  7  8  2  0
  7 40  1  0
  8  9  1  0
  8 35  1  0
  9 10  1  0
  9 41  1  0
 10 11  2  0
 10 12  1  0
 12 13  2  0
 12 20  1  0
 13 14  1  0
 13 18  1  0
 14 15  1  0
 14 42  1  0
 14 43  1  0
 15 16  1  0
 15 27  1  0
 16 17  1  0
 16 44  1  0
 16 45  1  0
 17 18  1  0
 17 46  1  0
 17 47  1  0
 18 19  2  0
 19 20  1  0
 20 21  1  0
 21 22  2  0
 21 26  1  0
 22 23  1  0
 22 48  1  0
 23 24  2  0
 23 49  1  0
 24 25  1  0
 24 50  1  0
 25 26  2  0
 25 51  1  0
 26 52  1  0
 27 28  2  0
 27 29  2  0
 27 30  1  0
 30 31  2  0
 30 34  1  0
 31 32  1  0
 31 53  1  0
 32 33  2  0
 32 54  1  0
 33 34  1  0
 33 55  1  0
 35 36  2  0
 35 56  1  0
 36 57  1  0
M  END
> <Name>
ligand_236

> <activity>
1

$$$$
ligand_237
  SciTegic10272118463D

 51 54  0  0  1  0            999 V2000
   -0.2647    3.9649   -0.9667 C   0  0
   -1.1582    3.0126   -0.1499 C   0  0
   -2.5800    2.9366   -0.7291 C   0  0
   -0.5806    1.6718   -0.0551 N   0  0
    0.4022    1.2964    0.7862 C   0  0
    0.9835    2.0551    1.5642 O   0  0
    0.7954   -0.0764    0.6188 N   0  0
    2.1089   -0.5270    0.6823 C   0  0
    3.3500    0.3238    0.9577 C   0  0
    4.5521   -0.5402    1.1151 N   0  0
    4.6529   -1.6894    0.1778 C   0  0
    3.4627   -2.6657    0.3267 C   0  0
    2.1573   -1.8831    0.3706 C   0  0
    0.8420   -2.2664    0.1369 C   0  0
   -0.0085   -1.1833    0.3227 C   0  0
   -1.5056   -1.2300    0.2322 C   0  0
   -2.1449   -1.9658   -0.7697 C   0  0
   -3.5381   -1.9890   -0.8256 C   0  0
   -4.2654   -1.2789    0.1259 C   0  0
   -3.5597   -0.5745    1.0996 C   0  0
   -2.2063   -0.5404    1.1694 N   0  0
    6.0605    0.2800    1.5569 S   0  0
    5.7695    1.3129    2.5580 O   0  0
    7.1081   -0.7261    1.7662 O   0  0
    6.4486    1.1374    0.0118 C   0  0
    6.0768    2.4387   -0.3049 C   0  0
    6.5035    2.8242   -1.5803 C   0  0
    7.1971    1.8170   -2.2381 C   0  0
    7.3262    0.3768   -1.2794 S   0  0
    0.7251    4.0632   -0.5193 H   0  0
   -0.1313    3.6089   -1.9891 H   0  0
   -0.6969    4.9648   -1.0178 H   0  0
   -1.2484    3.4204    0.8601 H   0  0
   -3.2231    2.3032   -0.1165 H   0  0
   -3.0425    3.9233   -0.7719 H   0  0
   -2.5799    2.5273   -1.7403 H   0  0
   -0.9796    0.9730   -0.6647 H   0  0
    3.5281    0.9889    0.1125 H   0  0
    3.2606    0.9451    1.8490 H   0  0
    4.7122   -1.2845   -0.8335 H   0  0
    5.5882   -2.2183    0.3629 H   0  0
    3.4725   -3.3933   -0.4852 H   0  0
    3.5763   -3.2391    1.2474 H   0  0
    0.5285   -3.2680   -0.1186 H   0  0
   -1.5697   -2.5110   -1.5037 H   0  0
   -4.0460   -2.5500   -1.5963 H   0  0
   -5.3454   -1.2760    0.1110 H   0  0
   -4.0876   -0.0131    1.8565 H   0  0
    5.5187    3.0810    0.3608 H   0  0
    6.3132    3.7981   -2.0069 H   0  0
    7.6305    1.8528   -3.2268 H   0  0
  1  2  1  0
  1 30  1  0
  1 31  1  0
  1 32  1  0
  2  3  1  0
  2  4  1  0
  2 33  1  0
  3 34  1  0
  3 35  1  0
  3 36  1  0
  4  5  1  0
  4 37  1  0
  5  6  2  0
  5  7  1  0
  7  8  1  0
  7 15  1  0
  8  9  1  0
  8 13  2  0
  9 10  1  0
  9 38  1  0
  9 39  1  0
 10 11  1  0
 10 22  1  0
 11 12  1  0
 11 40  1  0
 11 41  1  0
 12 13  1  0
 12 42  1  0
 12 43  1  0
 13 14  1  0
 14 15  2  0
 14 44  1  0
 15 16  1  0
 16 17  2  0
 16 21  1  0
 17 18  1  0
 17 45  1  0
 18 19  2  0
 18 46  1  0
 19 20  1  0
 19 47  1  0
 20 21  2  0
 20 48  1  0
 22 23  2  0
 22 24  2  0
 22 25  1  0
 25 26  2  0
 25 29  1  0
 26 27  1  0
 26 49  1  0
 27 28  2  0
 27 50  1  0
 28 29  1  0
 28 51  1  0
M  END
> <Name>
ligand_237

> <activity>
1

$$$$
ligand_238
  SciTegic10272118463D

 72 77  0  0  1  0            999 V2000
    3.0472    1.5293   -4.8835 F   0  0
    2.5364    1.7315   -3.6476 C   0  0
    2.1893    0.6298   -2.8663 C   0  0
    1.6611    0.8622   -1.5894 C   0  0
    1.2362   -0.0466   -0.6641 N   0  0
    0.8342    0.6697    0.3565 C   0  0
    0.2451    0.0364    1.5702 C   0  0
   -0.9633   -0.6574    1.4610 C   0  0
   -1.5312   -1.2480    2.5868 C   0  0
   -0.8862   -1.1497    3.8184 C   0  0
   -1.5905   -1.8805    5.2140 Cl  0  0
    0.3244   -0.4682    3.9315 C   0  0
    0.8920    0.1228    2.8059 C   0  0
    0.9744    2.0390    0.1601 N   0  0
    0.5898    3.1141    1.0996 C   0  0  1  0  0  0
    1.7965    4.0526    1.4651 C   0  0
    1.4439    5.0623    2.5957 C   0  0
    2.6171    5.9990    2.9472 C   0  0
    3.8920    5.2143    3.3030 C   0  0
    4.2641    4.2128    2.1956 C   0  0
    3.0884    3.2773    1.8515 C   0  0
   -0.6775    3.8398    0.5903 C   0  0
   -0.5780    4.9289    0.0235 O   0  0
   -1.8403    3.1846    0.8034 N   0  0
   -3.1474    3.5467    0.4315 C   0  0
   -4.1808    2.8857    1.0969 C   0  0
   -5.5085    3.1679    0.7887 C   0  0
   -5.8238    4.1136   -0.1944 C   0  0
   -4.7834    4.7622   -0.8752 C   0  0
   -3.4548    4.4813   -0.5681 C   0  0
   -7.2707    4.4026   -0.5176 C   0  0
   -8.1147    3.5103   -0.4156 O   0  0
   -7.5375    5.6805   -0.8711 N   0  0
   -8.7658    6.2570   -1.2430 C   0  0
   -8.8531    7.6449   -1.1606 C   0  0
  -10.0238    8.3013   -1.5198 C   0  0
  -11.1167    7.5760   -1.9739 C   0  0
  -11.0367    6.1937   -2.0736 C   0  0
   -9.8677    5.5339   -1.7147 C   0  0
    1.4988    2.1888   -1.1181 C   0  0
    1.8373    3.2958   -1.9089 C   0  0
    2.3604    3.0346   -3.1777 C   0  0
    2.7022    4.0759   -3.9702 F   0  0
    2.3211   -0.3743   -3.2411 H   0  0
   -1.4644   -0.7349    0.5065 H   0  0
   -2.4673   -1.7807    2.5030 H   0  0
    0.8236   -0.3997    4.8870 H   0  0
    1.8343    0.6412    2.8951 H   0  0
    0.3020    2.6343    2.0347 H   0  0
    2.0441    4.6476    0.5858 H   0  0
    0.5869    5.6753    2.3161 H   0  0
    1.1416    4.5159    3.4907 H   0  0
    2.8205    6.6561    2.1002 H   0  0
    2.3382    6.6504    3.7764 H   0  0
    4.7191    5.9035    3.4776 H   0  0
    3.7385    4.6781    4.2409 H   0  0
    4.5677    4.7572    1.2999 H   0  0
    5.1303    3.6252    2.5022 H   0  0
    2.8856    2.6372    2.7100 H   0  0
    3.4007    2.6146    1.0440 H   0  0
   -1.7785    2.3226    1.3243 H   0  0
   -3.9641    2.1523    1.8608 H   0  0
   -6.2900    2.6457    1.3232 H   0  0
   -4.9902    5.4799   -1.6565 H   0  0
   -2.6867    4.9882   -1.1307 H   0  0
   -6.7639    6.3262   -0.8262 H   0  0
   -8.0130    8.2278   -0.8105 H   0  0
  -10.0832    9.3773   -1.4468 H   0  0
  -12.0263    8.0867   -2.2542 H   0  0
  -11.8837    5.6297   -2.4358 H   0  0
   -9.8372    4.4612   -1.8253 H   0  0
    1.7002    4.3121   -1.5730 H   0  0
  1  2  1  0
  2  3  1  0
  2 42  2  0
  3  4  2  0
  3 44  1  0
  4  5  1  0
  4 40  1  0
  5  6  2  0
  6  7  1  0
  6 14  1  0
  7  8  2  0
  7 13  1  0
  8  9  1  0
  8 45  1  0
  9 10  2  0
  9 46  1  0
 10 11  1  0
 10 12  1  0
 12 13  2  0
 12 47  1  0
 13 48  1  0
 14 15  1  0
 14 40  1  0
 15 16  1  0
 15 22  1  0
 15 49  1  0
 16 17  1  0
 16 21  1  0
 16 50  1  0
 17 18  1  0
 17 51  1  0
 17 52  1  0
 18 19  1  0
 18 53  1  0
 18 54  1  0
 19 20  1  0
 19 55  1  0
 19 56  1  0
 20 21  1  0
 20 57  1  0
 20 58  1  0
 21 59  1  0
 21 60  1  0
 22 23  2  0
 22 24  1  0
 24 25  1  0
 24 61  1  0
 25 26  2  0
 25 30  1  0
 26 27  1  0
 26 62  1  0
 27 28  2  0
 27 63  1  0
 28 29  1  0
 28 31  1  0
 29 30  2  0
 29 64  1  0
 30 65  1  0
 31 32  2  0
 31 33  1  0
 33 34  1  0
 33 66  1  0
 34 35  2  0
 34 39  1  0
 35 36  1  0
 35 67  1  0
 36 37  2  0
 36 68  1  0
 37 38  1  0
 37 69  1  0
 38 39  2  0
 38 70  1  0
 39 71  1  0
 40 41  2  0
 41 42  1  0
 41 72  1  0
 42 43  1  0
M  END
> <Name>
ligand_238

> <activity>
1

$$$$
ligand_239
  SciTegic10272118463D

 76 80  0  0  1  0            999 V2000
   -4.6232   -1.5392    3.2046 C   0  0
   -4.5305   -0.9423    1.9122 O   0  0
   -3.2852   -0.6648    1.3794 C   0  0
   -3.2178   -0.0806    0.1159 C   0  0
   -1.9667    0.2001   -0.4311 C   0  0
   -0.8061   -0.1112    0.2854 C   0  0
    0.5207    0.1882   -0.3238 C   0  0
    0.9055    1.4179   -0.5603 N   0  0
    2.1300    1.2982   -1.1519 C   0  0
    2.9868    2.3089   -1.6081 C   0  0
    4.1937    1.9347   -2.1985 C   0  0
    5.0349    2.8949   -2.6456 F   0  0
    4.5444    0.5900   -2.3372 C   0  0
    5.7230    0.2694   -2.9181 F   0  0
    3.7098   -0.4382   -1.8922 C   0  0
    2.5002   -0.0619   -1.2926 C   0  0
    1.4407   -0.7679   -0.7377 N   0  0
    1.2949   -2.2382   -0.6596 C   0  0  1  0  0  0
    0.9971   -2.8562   -2.0738 C   0  0
    0.6061   -4.3618   -1.9937 C   0  0
    0.3133   -4.9819   -3.3741 C   0  0
   -0.7636   -4.1935   -4.1385 C   0  0
   -0.3965   -2.7040   -4.2456 C   0  0
   -0.0995   -2.0843   -2.8659 C   0  0
    2.4785   -2.8788    0.1086 C   0  0
    3.2937   -3.5858   -0.4799 O   0  0
    2.5623   -2.5755    1.4165 N   0  0
    3.5852   -2.9671    2.3941 C   0  0  2  0  0  0
    4.9964   -2.3565    2.1986 C   0  0
    5.9479   -3.2120    1.3371 C   0  0
    6.0257   -4.6819    1.8133 C   0  0  2  0  0  0
    6.9856   -5.5074    0.9102 C   0  0
    7.3951   -6.8671    1.5048 C   0  0
    7.5440   -6.9557    2.7443 O   0  5
    7.5778   -7.8012    0.6937 O   0  0
    4.6119   -5.3090    1.9154 C   0  0
    3.6471   -4.4679    2.7765 C   0  0
   -0.9437   -0.6851    1.5576 C   0  0
    0.1912   -0.9699    2.2989 O   0  0
    0.0559   -1.5263    3.6067 C   0  0
   -2.1657   -0.9642    2.0967 N   0  0
   -5.6722   -1.6851    3.4617 H   0  0
   -4.1366   -2.5156    3.2291 H   0  0
   -4.1792   -0.9020    3.9711 H   0  0
   -4.1201    0.1499   -0.4308 H   0  0
   -1.9002    0.6505   -1.4113 H   0  0
    2.7220    3.3512   -1.5096 H   0  0
    3.9987   -1.4721   -2.0093 H   0  0
    0.4154   -2.4404   -0.0486 H   0  0
    1.9129   -2.7895   -2.6652 H   0  0
    1.3915   -4.9475   -1.5170 H   0  0
   -0.2744   -4.4740   -1.3589 H   0  0
    1.2323   -5.0060   -3.9619 H   0  0
    0.0002   -6.0201   -3.2570 H   0  0
   -0.9020   -4.6175   -5.1338 H   0  0
   -1.7218   -4.2962   -3.6266 H   0  0
    0.4784   -2.5915   -4.8879 H   0  0
   -1.2039   -2.1566   -4.7335 H   0  0
   -1.0192   -2.0568   -2.2794 H   0  0
    0.1930   -1.0453   -3.0194 H   0  0
    1.8402   -1.9706    1.7825 H   0  0
    3.1815   -2.4674    3.2757 H   0  0
    4.9211   -1.3493    1.7861 H   0  0
    5.4560   -2.2342    3.1808 H   0  0
    5.6394   -3.1741    0.2932 H   0  0
    6.9425   -2.7642    1.3599 H   0  0
    6.4447   -4.6471    2.8215 H   0  0
    6.5423   -5.6513   -0.0768 H   0  0
    7.9098   -4.9515    0.7483 H   0  0
    4.1955   -5.4512    0.9193 H   0  0
    4.6793   -6.3100    2.3436 H   0  0
    3.9781   -4.5431    3.8136 H   0  0
    2.6486   -4.9068    2.7586 H   0  0
   -0.5200   -0.8717    4.2628 H   0  0
   -0.4228   -2.5062    3.5731 H   0  0
    1.0413   -1.6536    4.0532 H   0  0
  1  2  1  0
  1 42  1  0
  1 43  1  0
  1 44  1  0
  2  3  1  0
  3  4  2  0
  3 41  1  0
  4  5  1  0
  4 45  1  0
  5  6  2  0
  5 46  1  0
  6  7  1  0
  6 38  1  0
  7  8  2  0
  7 17  1  0
  8  9  1  0
  9 10  2  0
  9 16  1  0
 10 11  1  0
 10 47  1  0
 11 12  1  0
 11 13  2  0
 13 14  1  0
 13 15  1  0
 15 16  2  0
 15 48  1  0
 16 17  1  0
 17 18  1  0
 18 19  1  0
 18 25  1  0
 18 49  1  0
 19 20  1  0
 19 24  1  0
 19 50  1  0
 20 21  1  0
 20 51  1  0
 20 52  1  0
 21 22  1  0
 21 53  1  0
 21 54  1  0
 22 23  1  0
 22 55  1  0
 22 56  1  0
 23 24  1  0
 23 57  1  0
 23 58  1  0
 24 59  1  0
 24 60  1  0
 25 26  2  0
 25 27  1  0
 27 28  1  0
 27 61  1  0
 28 29  1  0
 28 37  1  0
 28 62  1  0
 29 30  1  0
 29 63  1  0
 29 64  1  0
 30 31  1  0
 30 65  1  0
 30 66  1  0
 31 32  1  0
 31 36  1  0
 31 67  1  0
 32 33  1  0
 32 68  1  0
 32 69  1  0
 33 34  1  0
 33 35  2  0
 36 37  1  0
 36 70  1  0
 36 71  1  0
 37 72  1  0
 37 73  1  0
 38 39  1  0
 38 41  2  0
 39 40  1  0
 40 74  1  0
 40 75  1  0
 40 76  1  0
M  CHG  1  34  -1
M  END
> <Name>
ligand_239

> <activity>
1

$$$$
ligand_240
  SciTegic10272118463D

 61 65  0  0  1  0            999 V2000
    1.3063    7.1053    0.7849 C   0  0
   -0.2210    7.1728    0.6921 C   0  0
   -0.7436    5.8550    0.5858 O   0  0
   -2.0797    5.6367    0.4883 C   0  0
   -2.9187    6.5422    0.4782 O   0  0
   -2.4350    4.1825    0.3778 C   0  0
   -3.7743    3.8100    0.2016 C   0  0
   -4.1497    2.4730    0.1056 C   0  0
   -3.1832    1.4772    0.1797 C   0  0
   -1.8403    1.8184    0.3410 C   0  0
   -0.9336    0.7473    0.4169 N   0  0
    0.3857    0.7337    0.1237 C   0  0
    1.0444    1.7081   -0.2414 O   0  0
    1.0197   -0.5568    0.2959 C   0  0
    2.3439   -0.8089    0.6542 C   0  0
    3.5076    0.1056    1.0179 C   0  0
    4.7883   -0.6511    1.0283 N   0  0
    4.7448   -1.9836    1.6830 C   0  0
    3.7515   -2.9470    0.9904 C   0  0
    2.4605   -2.2099    0.6606 C   0  0
    1.3469   -2.8004    0.3062 N   0  0
    0.4738   -1.8127    0.0514 N   0  0
   -0.8046   -2.1690   -0.4374 C   0  0
   -1.6026   -3.0670    0.2722 C   0  0
   -2.8628   -3.4056   -0.2048 C   0  0
   -3.3295   -2.8547   -1.3915 C   0  0
   -2.5349   -1.9675   -2.1062 C   0  0
   -1.2736   -1.6270   -1.6342 C   0  0
    6.2658    0.3053    1.2208 S   0  0
    6.0520    1.3123    2.2667 O   0  0
    7.4243   -0.5950    1.2445 O   0  0
    6.3156    1.1723   -0.3634 C   0  0
    6.3806    2.5500   -0.5329 C   0  0
    6.4074    2.9234   -1.8811 C   0  0
    6.3683    1.8315   -2.7385 C   0  0
    6.2987    0.3258   -1.8792 S   0  0
   -1.4688    3.1673    0.4522 C   0  0
    1.7339    8.1046    0.8668 H   0  0
    1.6234    6.5350    1.6587 H   0  0
    1.7344    6.6315   -0.0991 H   0  0
   -0.6282    7.6657    1.5765 H   0  0
   -0.5172    7.7631   -0.1767 H   0  0
   -4.5500    4.5609    0.1404 H   0  0
   -5.1891    2.2103   -0.0257 H   0  0
   -3.4846    0.4418    0.1030 H   0  0
   -1.3488   -0.1400    0.6592 H   0  0
    3.6059    0.9531    0.3392 H   0  0
    3.3562    0.5189    2.0156 H   0  0
    5.7437   -2.4203    1.6732 H   0  0
    4.4817   -1.8228    2.7295 H   0  0
    4.1980   -3.3217    0.0687 H   0  0
    3.5787   -3.8196    1.6211 H   0  0
   -1.2510   -3.5000    1.1981 H   0  0
   -3.4805   -4.0981    0.3482 H   0  0
   -4.3097   -3.1190   -1.7605 H   0  0
   -2.8973   -1.5427   -3.0308 H   0  0
   -0.6644   -0.9372   -2.2012 H   0  0
    6.4046    3.2547    0.2856 H   0  0
    6.4544    3.9486   -2.2181 H   0  0
    6.3784    1.8412   -3.8184 H   0  0
   -0.4331    3.4257    0.6125 H   0  0
  1  2  1  0
  1 38  1  0
  1 39  1  0
  1 40  1  0
  2  3  1  0
  2 41  1  0
  2 42  1  0
  3  4  1  0
  4  5  2  0
  4  6  1  0
  6  7  2  0
  6 37  1  0
  7  8  1  0
  7 43  1  0
  8  9  2  0
  8 44  1  0
  9 10  1  0
  9 45  1  0
 10 11  1  0
 10 37  2  0
 11 12  1  0
 11 46  1  0
 12 13  2  0
 12 14  1  0
 14 15  2  0
 14 22  1  0
 15 16  1  0
 15 20  1  0
 16 17  1  0
 16 47  1  0
 16 48  1  0
 17 18  1  0
 17 29  1  0
 18 19  1  0
 18 49  1  0
 18 50  1  0
 19 20  1  0
 19 51  1  0
 19 52  1  0
 20 21  2  0
 21 22  1  0
 22 23  1  0
 23 24  2  0
 23 28  1  0
 24 25  1  0
 24 53  1  0
 25 26  2  0
 25 54  1  0
 26 27  1  0
 26 55  1  0
 27 28  2  0
 27 56  1  0
 28 57  1  0
 29 30  2  0
 29 31  2  0
 29 32  1  0
 32 33  2  0
 32 36  1  0
 33 34  1  0
 33 58  1  0
 34 35  2  0
 34 59  1  0
 35 36  1  0
 35 60  1  0
 37 61  1  0
M  END
> <Name>
ligand_240

> <activity>
1

$$$$
ligand_241
  SciTegic10272118463D

 70 74  0  0  1  0            999 V2000
    9.4425    1.6905    0.8091 C   0  0
    9.3687    2.3810   -0.5602 C   0  0
    8.1470    1.9662   -1.4319 C   0  0
    9.3814    0.1552    0.6868 C   0  0
    8.1431   -0.3918   -0.0964 C   0  0  1  0  0  0
    8.0601    0.3876   -1.4724 C   0  0  1  0  0  0
    6.9548   -0.1898   -2.3946 C   0  0
    7.1642   -1.6916   -2.6766 C   0  0
    8.3517   -1.9300   -0.4361 C   0  0  2  0  0  0
    7.2990   -2.5961   -1.4104 C   0  0  2  0  0  0
    9.2446   -4.2209    0.3082 C   0  0  2  0  0  0
    8.6771   -2.8620    0.7671 C   0  0
    8.3283   -5.0012   -0.6966 C   0  0  1  0  0  0
    7.8662   -4.0126   -1.8522 C   0  0  1  0  0  0
    7.0573   -4.7208   -2.9996 C   0  0
    7.5248   -6.1469   -3.2632 C   0  0
    9.2123   -6.0921   -1.4087 C   0  0  2  0  0  0
    8.4684   -6.7596   -2.5242 C   0  0
    8.8765   -8.1322   -2.6515 C   0  0
    9.6573   -8.3951   -1.5841 O   0  0
    9.6674   -7.3405   -0.6565 C   0  0  1  0  0  0
    9.6262   -4.9840    1.4393 O   0  0
    7.0992   -5.5969    0.0586 C   0  0
    5.8791   -2.7266   -0.7687 C   0  0
    6.8886   -0.1998    0.8112 C   0  0
    8.4409    2.5110   -2.8570 C   0  0
    6.8585    2.6222   -0.8739 C   0  0
    8.5542   -8.9500   -3.5119 O   0  0
   10.9443   -7.1178   -0.1404 O   0  0
   11.4253   -8.1500    0.7107 C   0  0
   10.3709    1.9752    1.3062 H   0  0
    8.6486    2.0609    1.4562 H   0  0
    9.3848    3.4631   -0.4189 H   0  0
   10.2932    2.1466   -1.0921 H   0  0
   10.2997   -0.1827    0.2032 H   0  0
    9.4113   -0.2552    1.6964 H   0  0
    8.9855    0.1125   -1.9851 H   0  0
    5.9663   -0.0081   -1.9769 H   0  0
    6.9495    0.3170   -3.3579 H   0  0
    6.3452   -2.0406   -3.3073 H   0  0
    8.0615   -1.7875   -3.2907 H   0  0
    9.2849   -1.9292   -1.0051 H   0  0
   10.1903   -3.9985   -0.1904 H   0  0
    9.4262   -2.4039    1.4105 H   0  0
    7.8077   -3.0134    1.4042 H   0  0
    8.8038   -3.7579   -2.3535 H   0  0
    5.9945   -4.7736   -2.7739 H   0  0
    7.1402   -4.1580   -3.9295 H   0  0
    7.0263   -6.7029   -4.0457 H   0  0
   10.1039   -5.6253   -1.8365 H   0  0
    9.0023   -7.5971    0.1687 H   0  0
   10.1218   -5.7480    1.1313 H   0  0
    6.3770   -6.0484   -0.6209 H   0  0
    7.3912   -6.3729    0.7638 H   0  0
    6.5680   -4.8629    0.6558 H   0  0
    5.9050   -2.8521    0.3102 H   0  0
    5.2529   -1.8549   -0.9449 H   0  0
    5.3064   -3.5619   -1.1634 H   0  0
    5.9567   -0.1636    0.2539 H   0  0
    6.7945   -0.9950    1.5488 H   0  0
    6.9187    0.7115    1.4015 H   0  0
    8.6706    3.5775   -2.8341 H   0  0
    9.2906    2.0109   -3.3239 H   0  0
    7.5869    2.4018   -3.5248 H   0  0
    6.9001    3.7068   -0.9813 H   0  0
    5.9702    2.2894   -1.4105 H   0  0
    6.6947    2.4359    0.1826 H   0  0
   12.4120   -7.8790    1.0860 H   0  0
   10.7705   -8.2953    1.5714 H   0  0
   11.5216   -9.0982    0.1797 H   0  0
  1  2  1  0
  1  4  1  0
  1 31  1  0
  1 32  1  0
  2  3  1  0
  2 33  1  0
  2 34  1  0
  3  6  1  0
  3 26  1  0
  3 27  1  0
  4  5  1  0
  4 35  1  0
  4 36  1  0
  5  6  1  0
  5  9  1  0
  5 25  1  0
  6  7  1  0
  6 37  1  0
  7  8  1  0
  7 38  1  0
  7 39  1  0
  8 10  1  0
  8 40  1  0
  8 41  1  0
  9 10  1  0
  9 12  1  0
  9 42  1  0
 10 14  1  0
 10 24  1  0
 11 12  1  0
 11 13  1  0
 11 22  1  0
 11 43  1  0
 12 44  1  0
 12 45  1  0
 13 14  1  0
 13 17  1  0
 13 23  1  0
 14 15  1  0
 14 46  1  0
 15 16  1  0
 15 47  1  0
 15 48  1  0
 16 18  2  0
 16 49  1  0
 17 18  1  0
 17 21  1  0
 17 50  1  0
 18 19  1  0
 19 20  1  0
 19 28  2  0
 20 21  1  0
 21 29  1  0
 21 51  1  0
 22 52  1  0
 23 53  1  0
 23 54  1  0
 23 55  1  0
 24 56  1  0
 24 57  1  0
 24 58  1  0
 25 59  1  0
 25 60  1  0
 25 61  1  0
 26 62  1  0
 26 63  1  0
 26 64  1  0
 27 65  1  0
 27 66  1  0
 27 67  1  0
 29 30  1  0
 30 68  1  0
 30 69  1  0
 30 70  1  0
M  END
> <Name>
ligand_241

> <activity>
1

$$$$
ligand_242
  SciTegic10272118463D

 71 75  0  0  1  0            999 V2000
   10.6593   -2.3544    1.8044 C   0  0
   11.4347   -3.1284    0.7286 C   0  0
   11.8221   -2.2895   -0.5248 C   0  0
    9.4083   -1.6613    1.2293 C   0  0
    9.6816   -0.7137    0.0157 C   0  0  1  0  0  0
   10.5407   -1.5201   -1.0424 C   0  0  1  0  0  0
   10.7354   -0.7182   -2.3569 C   0  0
    9.3796   -0.3360   -2.9897 C   0  0
    8.3066   -0.3173   -0.6827 C   0  0  2  0  0  0
    8.4041    0.4644   -2.0565 C   0  0  2  0  0  0
    5.8239    0.4114   -0.4150 C   0  0  2  0  0  0
    7.2156    0.2761    0.2531 C   0  0
    5.8192    1.2416   -1.7490 C   0  0  1  0  0  0
    6.9365    0.5936   -2.6937 C   0  0  2  0  0  0
    6.4741   -0.7694   -3.3264 C   0  0
    5.0641   -0.7426   -3.8515 C   0  0
    4.3610    1.1897   -2.3953 C   0  0  2  0  0  0
    4.1445    0.1345   -3.4455 C   0  0
    2.7856    0.4554   -3.9846 C   0  0
    2.8606    1.8651   -4.0907 O   0  0
    3.8453    2.3782   -3.2309 C   0  0  1  0  0  0
   10.4063    0.5547    0.5652 C   0  0
    9.0392    1.8882   -1.9218 C   0  0
   12.2816   -3.3179   -1.5952 C   0  0
   12.9941   -1.3370   -0.1763 C   0  0
    6.1398    2.7283   -1.3935 C   0  0
    4.9141    0.8952    0.5609 O   0  0
    3.3038    3.3392   -2.3770 O   0  0
    2.8831    4.5329   -3.0234 C   0  0
   10.3574   -3.0424    2.5953 H   0  0
   11.3151   -1.6334    2.2906 H   0  0
   12.3242   -3.5745    1.1771 H   0  0
   10.8120   -3.9725    0.4248 H   0  0
    8.6977   -2.4362    0.9361 H   0  0
    8.9298   -1.1150    2.0428 H   0  0
    9.8807   -2.3392   -1.3399 H   0  0
   11.3643    0.1542   -2.1932 H   0  0
   11.2736   -1.3113   -3.0942 H   0  0
    9.5447    0.2068   -3.9220 H   0  0
    8.9492   -1.2914   -3.2809 H   0  0
    7.8839   -1.2869   -0.9468 H   0  0
    5.4707   -0.5965   -0.6399 H   0  0
    7.0876   -0.3659    1.1236 H   0  0
    7.5347    1.2356    0.6549 H   0  0
    7.0216    1.2692   -3.5474 H   0  0
    7.0865   -1.0020   -4.1966 H   0  0
    6.5626   -1.6084   -2.6382 H   0  0
    4.8048   -1.4194   -4.6530 H   0  0
    3.6235    1.0459   -1.6036 H   0  0
    2.5802    0.0050   -4.9562 H   0  0
    1.9888    0.1654   -3.2977 H   0  0
    4.6515    2.8070   -3.8318 H   0  0
   10.9647    1.0934   -0.1955 H   0  0
    9.7110    1.2596    1.0167 H   0  0
   11.1152    0.3377    1.3583 H   0  0
    8.9096    2.3237   -0.9356 H   0  0
   10.1129    1.9111   -2.0926 H   0  0
    8.6376    2.5896   -2.6528 H   0  0
   13.0576   -3.9776   -1.2038 H   0  0
   11.4634   -3.9541   -1.9359 H   0  0
   12.7113   -2.8361   -2.4729 H   0  0
   13.9012   -1.9041    0.0370 H   0  0
   13.2320   -0.6681   -1.0032 H   0  0
   12.8161   -0.7260    0.7024 H   0  0
    6.3836    3.3171   -2.2777 H   0  0
    5.2867    3.2089   -0.9158 H   0  0
    6.9364    2.8642   -0.6733 H   0  0
    4.0415    0.9521    0.1653 H   0  0
    2.4928    5.2282   -2.2803 H   0  0
    3.7130    5.0237   -3.5343 H   0  0
    2.0899    4.3409   -3.7474 H   0  0
  1  2  1  0
  1  4  1  0
  1 30  1  0
  1 31  1  0
  2  3  1  0
  2 32  1  0
  2 33  1  0
  3  6  1  0
  3 24  1  0
  3 25  1  0
  4  5  1  0
  4 34  1  0
  4 35  1  0
  5  6  1  0
  5  9  1  0
  5 22  1  0
  6  7  1  0
  6 36  1  0
  7  8  1  0
  7 37  1  0
  7 38  1  0
  8 10  1  0
  8 39  1  0
  8 40  1  0
  9 10  1  0
  9 12  1  0
  9 41  1  0
 10 14  1  0
 10 23  1  0
 11 12  1  0
 11 13  1  0
 11 27  1  0
 11 42  1  0
 12 43  1  0
 12 44  1  0
 13 14  1  0
 13 17  1  0
 13 26  1  0
 14 15  1  0
 14 45  1  0
 15 16  1  0
 15 46  1  0
 15 47  1  0
 16 18  2  0
 16 48  1  0
 17 18  1  0
 17 21  1  0
 17 49  1  0
 18 19  1  0
 19 20  1  0
 19 50  1  0
 19 51  1  0
 20 21  1  0
 21 28  1  0
 21 52  1  0
 22 53  1  0
 22 54  1  0
 22 55  1  0
 23 56  1  0
 23 57  1  0
 23 58  1  0
 24 59  1  0
 24 60  1  0
 24 61  1  0
 25 62  1  0
 25 63  1  0
 25 64  1  0
 26 65  1  0
 26 66  1  0
 26 67  1  0
 27 68  1  0
 28 29  1  0
 29 69  1  0
 29 70  1  0
 29 71  1  0
M  END
> <Name>
ligand_242

> <activity>
1

$$$$
ligand_243
  SciTegic10272118463D

 57 61  0  0  1  0            999 V2000
   22.1984   -4.5052   -1.3248 C   0  0
   22.5538   -5.2408   -2.4650 C   0  0
   22.4289   -4.6472   -3.7220 C   0  0
   21.9768   -3.3802   -3.8972 N   0  0
   21.6371   -2.6732   -2.7903 C   0  0
   21.7311   -3.1935   -1.4986 C   0  0
   25.8505   -2.0342    2.4192 C   0  0
   26.0567   -2.8581    1.3128 C   0  0
   25.0349   -3.6449    0.7757 C   0  0
   24.6039   -1.9575    3.0407 C   0  0
   23.5577   -2.7339    2.5224 C   0  0
   23.7831   -3.5698    1.4016 C   0  0
   22.5635   -4.1870    1.1695 N   0  0
   21.6895   -3.6626    2.1232 C   0  0
   22.2634   -2.8202    2.9465 N   0  0
   22.3160   -5.1504    0.0693 C   0  0  1  0  0  0
   21.2567   -6.2431    0.3605 C   0  0
   20.1163   -6.2367   -0.3579 N   0  0
   21.4726   -7.0599    1.2570 O   0  0
   20.2405   -3.9795    2.2505 C   0  0
   18.9845   -7.1495   -0.1856 C   0  0
   19.8174   -4.8871    3.2252 C   0  0
   18.4686   -5.2165    3.3286 C   0  0
   17.5457   -4.6272    2.4664 C   0  0
   17.9597   -3.7016    1.5102 C   0  0
   19.3091   -3.3780    1.4005 C   0  0
   17.7017   -6.6229   -0.8696 C   0  0
   16.4884   -7.5462   -0.6426 C   0  0
   16.7851   -8.9942   -1.0746 C   0  0
   18.0569   -9.5389   -0.3983 C   0  0
   19.2691   -8.6110   -0.6176 C   0  0
   15.8774   -5.0532    2.5773 Cl  0  0
   22.9154   -6.2553   -2.3793 H   0  0
   22.6935   -5.1915   -4.6168 H   0  0
   21.2839   -1.6654   -2.9534 H   0  0
   21.4533   -2.5800   -0.6557 H   0  0
   26.6710   -1.4438    2.8003 H   0  0
   27.0363   -2.8887    0.8583 H   0  0
   25.2121   -4.2772   -0.0818 H   0  0
   24.4513   -1.3147    3.8951 H   0  0
   23.2402   -5.7298    0.0161 H   0  0
   20.0202   -5.5446   -1.0866 H   0  0
   18.7823   -7.1562    0.8889 H   0  0
   20.5352   -5.3517    3.8860 H   0  0
   18.1431   -5.9312    4.0702 H   0  0
   17.2395   -3.2440    0.8480 H   0  0
   19.6250   -2.6646    0.6549 H   0  0
   17.4647   -5.6230   -0.5063 H   0  0
   17.8785   -6.5166   -1.9412 H   0  0
   16.2145   -7.5306    0.4136 H   0  0
   15.6229   -7.1650   -1.1860 H   0  0
   15.9341   -9.6354   -0.8415 H   0  0
   16.9066   -9.0315   -2.1583 H   0  0
   17.8774   -9.6505    0.6723 H   0  0
   18.2798  -10.5383   -0.7741 H   0  0
   19.5529   -8.6283   -1.6711 H   0  0
   20.1251   -9.0084   -0.0710 H   0  0
  1  2  1  0
  1  6  2  0
  1 16  1  0
  2  3  2  0
  2 33  1  0
  3  4  1  0
  3 34  1  0
  4  5  2  0
  5  6  1  0
  5 35  1  0
  6 36  1  0
  7  8  2  0
  7 10  1  0
  7 37  1  0
  8  9  1  0
  8 38  1  0
  9 12  2  0
  9 39  1  0
 10 11  2  0
 10 40  1  0
 11 12  1  0
 11 15  1  0
 12 13  1  0
 13 14  1  0
 13 16  1  0
 14 15  2  0
 14 20  1  0
 16 17  1  0
 16 41  1  0
 17 18  1  0
 17 19  2  0
 18 21  1  0
 18 42  1  0
 20 22  2  0
 20 26  1  0
 21 27  1  0
 21 31  1  0
 21 43  1  0
 22 23  1  0
 22 44  1  0
 23 24  2  0
 23 45  1  0
 24 25  1  0
 24 32  1  0
 25 26  2  0
 25 46  1  0
 26 47  1  0
 27 28  1  0
 27 48  1  0
 27 49  1  0
 28 29  1  0
 28 50  1  0
 28 51  1  0
 29 30  1  0
 29 52  1  0
 29 53  1  0
 30 31  1  0
 30 54  1  0
 30 55  1  0
 31 56  1  0
 31 57  1  0
M  END
> <Name>
ligand_243

> <activity>
1

$$$$
ligand_244
  SciTegic10272118463D

 56 57  0  0  1  0            999 V2000
   26.4545  -21.1247   -1.0514 C   0  0
   27.9857  -20.9806   -1.2505 C   0  0
   26.2453  -22.0852    0.1552 C   0  0
   18.1547  -13.3000    1.2489 C   0  0
   17.5587  -14.5652    1.1621 C   0  0
   18.3125  -15.7071    0.8788 C   0  0
   19.6990  -15.6063    0.6961 C   0  0
   20.3029  -14.3441    0.8056 C   0  0
   19.5498  -13.2037    1.0863 C   0  0
   17.6058  -17.0567    0.7846 C   0  0
   17.6504  -17.8416    2.1078 C   0  0
   17.2767  -12.1311    1.5810 C   0  0
   17.5701  -10.8020    0.8854 C   0  0
   20.2280  -12.0172    1.2136 O   0  0
   20.3973  -16.7707    0.4274 O   0  0
   21.8104  -16.7274    0.2547 C   0  0
   22.3134  -18.1517   -0.0210 C   0  0
   23.8381  -18.2232   -0.2191 C   0  0
   24.3392  -19.6510   -0.4997 C   0  0
   25.8712  -19.7204   -0.6967 C   0  0
   25.8222  -21.6669   -2.3585 C   0  0
   25.1743  -22.8105   -2.4496 N   0  0
   24.7748  -22.9088   -3.7608 N   0  0
   25.2157  -21.7894   -4.4137 N   0  0
   25.8833  -21.0104   -3.4995 N   0  5
   16.2358  -12.2254    2.2320 O   0  0
   16.9443  -19.2011    2.0190 C   0  0
   28.2272  -20.2794   -2.0506 H   0  0
   28.4783  -20.6172   -0.3474 H   0  0
   28.4457  -21.9355   -1.5096 H   0  0
   25.1900  -22.2813    0.3465 H   0  0
   26.7206  -23.0521   -0.0168 H   0  0
   26.6699  -21.6774    1.0735 H   0  0
   16.4918  -14.6723    1.3068 H   0  0
   21.3695  -14.2357    0.6830 H   0  0
   16.5699  -16.9037    0.4769 H   0  0
   18.0551  -17.6448   -0.0174 H   0  0
   18.6881  -17.9982    2.4068 H   0  0
   17.1901  -17.2501    2.9007 H   0  0
   16.6692  -10.1906    0.8302 H   0  0
   18.3320  -10.2461    1.4309 H   0  0
   17.9226  -10.9727   -0.1319 H   0  0
   21.1741  -12.1120    1.0857 H   0  0
   22.2878  -16.3336    1.1541 H   0  0
   22.0683  -16.0744   -0.5812 H   0  0
   21.8121  -18.5432   -0.9076 H   0  0
   22.0225  -18.8009    0.8063 H   0  0
   24.3380  -17.8325    0.6687 H   0  0
   24.1266  -17.5709   -1.0451 H   0  0
   23.8349  -20.0359   -1.3873 H   0  0
   24.0418  -20.2988    0.3250 H   0  0
   26.3554  -19.3454    0.2067 H   0  0
   26.1462  -19.0129   -1.4813 H   0  0
   16.9953  -19.7291    2.9717 H   0  0
   15.8910  -19.0844    1.7615 H   0  0
   17.4056  -19.8378    1.2633 H   0  0
  1  2  1  0
  1  3  1  0
  1 20  1  0
  1 21  1  0
  2 28  1  0
  2 29  1  0
  2 30  1  0
  3 31  1  0
  3 32  1  0
  3 33  1  0
  4  5  2  0
  4  9  1  0
  4 12  1  0
  5  6  1  0
  5 34  1  0
  6  7  2  0
  6 10  1  0
  7  8  1  0
  7 15  1  0
  8  9  2  0
  8 35  1  0
  9 14  1  0
 10 11  1  0
 10 36  1  0
 10 37  1  0
 11 27  1  0
 11 38  1  0
 11 39  1  0
 12 13  1  0
 12 26  2  0
 13 40  1  0
 13 41  1  0
 13 42  1  0
 14 43  1  0
 15 16  1  0
 16 17  1  0
 16 44  1  0
 16 45  1  0
 17 18  1  0
 17 46  1  0
 17 47  1  0
 18 19  1  0
 18 48  1  0
 18 49  1  0
 19 20  1  0
 19 50  1  0
 19 51  1  0
 20 52  1  0
 20 53  1  0
 21 22  2  0
 21 25  1  0
 22 23  1  0
 23 24  2  0
 24 25  1  0
 27 54  1  0
 27 55  1  0
 27 56  1  0
M  CHG  1  25  -1
M  END
> <Name>
ligand_244

> <activity>
1

$$$$
ligand_245
  SciTegic10272118463D

 74 78  0  0  1  0            999 V2000
   -2.5739   -8.3572    1.5859 C   0  0
   -2.1115   -9.6290    0.8596 C   0  0
   -1.7980   -9.4383   -0.6539 C   0  0
   -3.7713   -7.6897    0.8802 C   0  0
   -3.5408   -7.3555   -0.6300 C   0  0  1  0  0  0
   -3.0006   -8.6663   -1.3327 C   0  0  1  0  0  0
   -2.8931   -8.4852   -2.8687 C   0  0
   -4.2645   -8.1211   -3.4779 C   0  0
   -4.9230   -6.9660   -1.3237 C   0  0  2  0  0  0
   -4.9397   -6.8205   -2.9046 C   0  0  2  0  0  0
   -7.2150   -5.7553   -1.1445 C   0  0  2  0  0  0
   -5.7607   -5.8648   -0.6175 C   0  0
   -7.3498   -5.5378   -2.6962 C   0  0  1  0  0  0
   -6.4647   -6.6736   -3.4027 C   0  0  2  0  0  0
   -7.1877   -8.0692   -3.4251 C   0  0
   -8.6232   -7.9935   -3.8626 C   0  0
   -8.9020   -5.6143   -3.0912 C   0  0  2  0  0  0
   -9.3682   -6.8975   -3.7267 C   0  0
  -10.7284   -6.5596   -4.2515 C   0  0
  -10.4296   -5.3391   -4.8923 O   0  0
   -9.5024   -4.6216   -4.1304 C   0  0  1  0  0  0
   -2.5402   -6.1645   -0.6924 C   0  0
   -4.0623   -5.6658   -3.5233 C   0  0
   -1.6986  -10.8712   -1.2476 C   0  0
   -0.4405   -8.7088   -0.8215 C   0  0
   -6.8149   -4.1084   -3.0264 C   0  0
   -7.8857   -4.7661   -0.3782 O   0  0
  -10.0787   -3.5799   -3.4444 O   0  0
   -3.8774   -4.4954   -2.7424 O   0  0
   -3.1501   -3.4601   -3.2070 C   0  0
   -2.5881   -3.3941   -4.3007 O   0  0
   -3.0791   -2.3147   -2.2070 C   0  0
   -2.8552   -8.6099    2.6091 H   0  0
   -1.7426   -7.6604    1.6843 H   0  0
   -1.2455  -10.0451    1.3775 H   0  0
   -2.9018  -10.3734    0.9777 H   0  0
   -4.6349   -8.3494    0.9817 H   0  0
   -4.0216   -6.7877    1.4396 H   0  0
   -3.8233   -9.3764   -1.2155 H   0  0
   -2.1251   -7.7584   -3.1245 H   0  0
   -2.5689   -9.4092   -3.3443 H   0  0
   -4.1846   -8.0644   -4.5652 H   0  0
   -4.8678   -9.0036   -3.2776 H   0  0
   -5.5293   -7.8536   -1.1380 H   0  0
   -7.7201   -6.6892   -0.8907 H   0  0
   -5.8320   -6.0825    0.4471 H   0  0
   -5.2569   -4.9023   -0.6682 H   0  0
   -6.4218   -6.3876   -4.4555 H   0  0
   -6.7253   -8.7188   -4.1669 H   0  0
   -7.1425   -8.5836   -2.4659 H   0  0
   -9.0513   -8.8445   -4.3729 H   0  0
   -9.4978   -5.5144   -2.1808 H   0  0
  -11.1183   -7.2857   -4.9654 H   0  0
  -11.4676   -6.4220   -3.4598 H   0  0
   -8.7593   -4.2587   -4.8417 H   0  0
   -2.0865   -6.0404   -1.6726 H   0  0
   -3.0217   -5.2249   -0.4266 H   0  0
   -1.7193   -6.2466    0.0117 H   0  0
   -4.4730   -5.3802   -4.4931 H   0  0
   -3.0604   -6.0207   -3.7589 H   0  0
   -0.9914  -11.4844   -0.6868 H   0  0
   -2.6562  -11.3936   -1.2319 H   0  0
   -1.3424  -10.8678   -2.2774 H   0  0
    0.3825   -9.3500   -0.5033 H   0  0
   -0.2464   -8.4456   -1.8610 H   0  0
   -0.3504   -7.8055   -0.2276 H   0  0
   -6.4636   -4.0195   -4.0546 H   0  0
   -7.5773   -3.3454   -2.8825 H   0  0
   -6.0363   -3.7642   -2.3594 H   0  0
   -8.7890   -4.6932   -0.6947 H   0  0
  -10.2260   -2.8642   -4.0669 H   0  0
   -2.4895   -1.4902   -2.6082 H   0  0
   -4.0802   -1.9467   -1.9828 H   0  0
   -2.6158   -2.6517   -1.2797 H   0  0
  1  2  1  0
  1  4  1  0
  1 33  1  0
  1 34  1  0
  2  3  1  0
  2 35  1  0
  2 36  1  0
  3  6  1  0
  3 24  1  0
  3 25  1  0
  4  5  1  0
  4 37  1  0
  4 38  1  0
  5  6  1  0
  5  9  1  0
  5 22  1  0
  6  7  1  0
  6 39  1  0
  7  8  1  0
  7 40  1  0
  7 41  1  0
  8 10  1  0
  8 42  1  0
  8 43  1  0
  9 10  1  0
  9 12  1  0
  9 44  1  0
 10 14  1  0
 10 23  1  0
 11 12  1  0
 11 13  1  0
 11 27  1  0
 11 45  1  0
 12 46  1  0
 12 47  1  0
 13 14  1  0
 13 17  1  0
 13 26  1  0
 14 15  1  0
 14 48  1  0
 15 16  1  0
 15 49  1  0
 15 50  1  0
 16 18  2  0
 16 51  1  0
 17 18  1  0
 17 21  1  0
 17 52  1  0
 18 19  1  0
 19 20  1  0
 19 53  1  0
 19 54  1  0
 20 21  1  0
 21 28  1  0
 21 55  1  0
 22 56  1  0
 22 57  1  0
 22 58  1  0
 23 29  1  0
 23 59  1  0
 23 60  1  0
 24 61  1  0
 24 62  1  0
 24 63  1  0
 25 64  1  0
 25 65  1  0
 25 66  1  0
 26 67  1  0
 26 68  1  0
 26 69  1  0
 27 70  1  0
 28 71  1  0
 29 30  1  0
 30 31  2  0
 30 32  1  0
 32 72  1  0
 32 73  1  0
 32 74  1  0
M  END
> <Name>
ligand_245

> <activity>
1

$$$$
ligand_246
  SciTegic10272118463D

 62 66  0  0  1  0            999 V2000
    7.3003    0.8806    0.9759 F   0  0
    6.6028    2.0151    1.2143 C   0  0
    6.4485    2.4507    2.5263 C   0  0
    5.7299    3.6078    2.8088 C   0  0
    5.1564    4.3439    1.7796 C   0  0
    5.3068    3.9118    0.4668 C   0  0
    6.0264    2.7508    0.1746 C   0  0
    6.1774    2.2264   -1.5392 S   0  0
    7.4235    1.4620   -1.6702 O   0  0
    5.9599    3.4158   -2.3720 O   0  0
    4.8136    1.1234   -1.8122 N   0  0
    4.8993   -0.2801   -1.3228 C   0  0
    4.2364   -0.4892    0.0623 C   0  0
    2.9013    0.2394    0.1161 C   0  0
    1.8018    0.1070    0.9620 C   0  0
    0.8323    1.0468    0.6238 C   0  0
   -0.4571    1.1948    1.2594 C   0  0
   -1.0505    0.2208    1.7240 O   0  0
   -0.9153    2.4564    1.3253 N   0  0
   -2.1936    2.8758    1.8943 C   0  0
   -2.9462    3.8042    0.9549 C   0  0
   -3.6231    3.2847   -0.1463 C   0  0
   -4.3163    4.1292   -1.0044 C   0  0
   -4.3452    5.4963   -0.7609 C   0  0
   -3.6834    6.0185    0.3428 C   0  0
   -2.9880    5.1750    1.2004 C   0  0
    1.2979    1.7193   -0.5039 N   0  0
    0.5969    2.7391   -1.3003 C   0  0
    0.6731    4.1743   -0.7776 C   0  0
    1.6540    4.5864    0.1264 C   0  0
    1.6846    5.8986    0.5811 C   0  0
    0.7399    6.8124    0.1344 C   0  0
   -0.2348    6.4133   -0.7696 C   0  0
   -0.2669    5.1009   -1.2230 C   0  0
    2.5635    1.2415   -0.7872 C   0  0
    3.4498    1.7095   -1.9347 C   0  0
    6.8894    1.8848    3.3339 H   0  0
    5.6175    3.9352    3.8320 H   0  0
    4.5990    5.2428    1.9979 H   0  0
    4.8533    4.4868   -0.3275 H   0  0
    4.4114   -0.9028   -2.0737 H   0  0
    5.9447   -0.5884   -1.2977 H   0  0
    4.1236   -1.5551    0.2617 H   0  0
    4.8865   -0.1118    0.8493 H   0  0
    1.7281   -0.6032    1.7732 H   0  0
   -0.3184    3.1980    0.9873 H   0  0
   -2.8347    2.0251    2.1370 H   0  0
   -1.9982    3.3756    2.8443 H   0  0
   -3.6046    2.2223   -0.3432 H   0  0
   -4.8338    3.7222   -1.8606 H   0  0
   -4.8844    6.1527   -1.4281 H   0  0
   -3.7073    7.0813    0.5337 H   0  0
   -2.4735    5.5937    2.0533 H   0  0
    0.9943    2.7305   -2.3157 H   0  0
   -0.4467    2.4329   -1.3899 H   0  0
    2.3979    3.8926    0.4884 H   0  0
    2.4436    6.2092    1.2836 H   0  0
    0.7635    7.8324    0.4888 H   0  0
   -0.9722    7.1217   -1.1175 H   0  0
   -1.0360    4.8029   -1.9213 H   0  0
    3.5297    2.7948   -1.9977 H   0  0
    3.0500    1.3904   -2.8974 H   0  0
  1  2  1  0
  2  3  2  0
  2  7  1  0
  3  4  1  0
  3 37  1  0
  4  5  2  0
  4 38  1  0
  5  6  1  0
  5 39  1  0
  6  7  2  0
  6 40  1  0
  7  8  1  0
  8  9  2  0
  8 10  2  0
  8 11  1  0
 11 12  1  0
 11 36  1  0
 12 13  1  0
 12 41  1  0
 12 42  1  0
 13 14  1  0
 13 43  1  0
 13 44  1  0
 14 15  1  0
 14 35  2  0
 15 16  2  0
 15 45  1  0
 16 17  1  0
 16 27  1  0
 17 18  2  0
 17 19  1  0
 19 20  1  0
 19 46  1  0
 20 21  1  0
 20 47  1  0
 20 48  1  0
 21 22  2  0
 21 26  1  0
 22 23  1  0
 22 49  1  0
 23 24  2  0
 23 50  1  0
 24 25  1  0
 24 51  1  0
 25 26  2  0
 25 52  1  0
 26 53  1  0
 27 28  1  0
 27 35  1  0
 28 29  1  0
 28 54  1  0
 28 55  1  0
 29 30  2  0
 29 34  1  0
 30 31  1  0
 30 56  1  0
 31 32  2  0
 31 57  1  0
 32 33  1  0
 32 58  1  0
 33 34  2  0
 33 59  1  0
 34 60  1  0
 35 36  1  0
 36 61  1  0
 36 62  1  0
M  END
> <Name>
ligand_246

> <activity>
1

$$$$
ligand_247
  SciTegic10272118463D

 54 58  0  0  1  0            999 V2000
   -4.5053    6.2581    0.4882 O   0  5
   -3.2599    6.3482    0.5898 C   0  0
   -2.6427    7.4330    0.6974 O   0  0
   -2.4581    5.0780    0.5818 C   0  0
   -3.0923    3.8319    0.4667 C   0  0
   -2.3501    2.6543    0.4592 C   0  0
   -0.9595    2.6996    0.5576 C   0  0
   -0.2980    1.4600    0.5506 N   0  0
    0.9904    1.1832    0.2497 C   0  0
    1.8491    2.0142   -0.0482 O   0  0
    1.3284   -0.2232    0.3249 C   0  0
    2.5634   -0.7810    0.6559 C   0  0
    3.8940   -0.1686    1.0769 C   0  0
    4.9806   -1.1831    1.0222 N   0  0
    4.6449   -2.5180    1.5800 C   0  0
    3.4720   -3.1917    0.8286 C   0  0
    2.3742   -2.1708    0.5608 C   0  0
    1.1626   -2.4794    0.1721 N   0  0
    0.5260   -1.3106   -0.0057 N   0  0
   -0.7948   -1.3468   -0.5103 C   0  0
   -1.7730   -2.1032    0.1360 C   0  0
   -3.0724   -2.1264   -0.3549 C   0  0
   -3.4001   -1.4004   -1.4929 C   0  0
   -2.4276   -0.6536   -2.1453 C   0  0
   -1.1265   -0.6286   -1.6594 C   0  0
    6.6300   -0.5861    1.2640 S   0  0
    6.6369    0.3657    2.3811 O   0  0
    7.5659   -1.7151    1.2094 O   0  0
    6.8719    0.3610   -0.2554 C   0  0
    7.2282    1.7022   -0.3277 C   0  0
    7.3406    2.1565   -1.6463 C   0  0
    7.0752    1.1616   -2.5783 C   0  0
    6.6834   -0.3524   -1.8270 S   0  0
   -0.3141    3.9369    0.6851 C   0  0
   -1.0598    5.1128    0.6933 C   0  0
   -4.1679    3.7638    0.3824 H   0  0
   -2.8655    1.7083    0.3686 H   0  0
   -0.8953    0.6685    0.7379 H   0  0
    4.1791    0.6849    0.4614 H   0  0
    3.8274    0.1937    2.1033 H   0  0
    5.5256   -3.1586    1.5309 H   0  0
    4.4149   -2.3794    2.6374 H   0  0
    3.8341   -3.5884   -0.1205 H   0  0
    3.1089   -4.0481    1.3975 H   0  0
   -1.5303   -2.6693    1.0242 H   0  0
   -3.8292   -2.7091    0.1497 H   0  0
   -4.4114   -1.4186   -1.8723 H   0  0
   -2.6829   -0.0915   -3.0316 H   0  0
   -0.3791   -0.0443   -2.1774 H   0  0
    7.3964    2.3258    0.5383 H   0  0
    7.6052    3.1698   -1.9104 H   0  0
    7.0924    1.2460   -3.6548 H   0  0
    0.7568    4.0118    0.7924 H   0  0
   -0.5360    6.0533    0.7919 H   0  0
  1  2  1  0
  2  3  2  0
  2  4  1  0
  4  5  2  0
  4 35  1  0
  5  6  1  0
  5 36  1  0
  6  7  2  0
  6 37  1  0
  7  8  1  0
  7 34  1  0
  8  9  1  0
  8 38  1  0
  9 10  2  0
  9 11  1  0
 11 12  2  0
 11 19  1  0
 12 13  1  0
 12 17  1  0
 13 14  1  0
 13 39  1  0
 13 40  1  0
 14 15  1  0
 14 26  1  0
 15 16  1  0
 15 41  1  0
 15 42  1  0
 16 17  1  0
 16 43  1  0
 16 44  1  0
 17 18  2  0
 18 19  1  0
 19 20  1  0
 20 21  2  0
 20 25  1  0
 21 22  1  0
 21 45  1  0
 22 23  2  0
 22 46  1  0
 23 24  1  0
 23 47  1  0
 24 25  2  0
 24 48  1  0
 25 49  1  0
 26 27  2  0
 26 28  2  0
 26 29  1  0
 29 30  2  0
 29 33  1  0
 30 31  1  0
 30 50  1  0
 31 32  2  0
 31 51  1  0
 32 33  1  0
 32 52  1  0
 34 35  2  0
 34 53  1  0
 35 54  1  0
M  CHG  1   1  -1
M  END
> <Name>
ligand_247

> <activity>
1

$$$$
ligand_248
  SciTegic10272118463D

 47 48  0  0  1  0            999 V2000
    0.2984   -0.0825    0.5134 C   0  0
    0.4892    1.2075    1.0022 C   0  0
   -0.5896    2.0759    1.1217 C   0  0
   -1.8742    1.6658    0.7644 C   0  0
   -2.1095    0.3578    0.2797 C   0  0
   -0.9969   -0.5004    0.1701 C   0  0
   -2.8761    2.5892    0.9140 O   0  0
    1.4377   -0.9029    0.4351 N   0  0
    1.6464   -1.9713   -0.3626 C   0  0
    0.8655   -2.4113   -1.2065 O   0  0
    2.9821   -2.6304   -0.1569 C   0  0
    3.1239   -3.6812    0.7690 C   0  0
    4.3662   -4.2896    0.9490 C   0  0
    5.4829   -3.8784    0.2220 C   0  0
    5.3411   -2.8328   -0.6979 C   0  0
    4.1072   -2.2109   -0.8918 C   0  0
    6.6980   -4.5430    0.4648 N   0  0
    1.7956   -4.2657    1.7195 Cl  0  0
   -3.5383   -0.1314   -0.1181 C   0  0
   -4.4907   -0.0759    1.1041 C   0  0
   -4.1064    0.7350   -1.2717 C   0  0
   -3.5682   -1.6014   -0.6256 C   0  0
    4.0292   -0.9225   -2.0509 Cl  0  0
    7.9595   -4.1452   -0.1507 C   0  0
    8.6993   -3.0670    0.6502 C   0  0
    1.4745    1.5495    1.2857 H   0  0
   -0.4199    3.0751    1.4959 H   0  0
   -1.1299   -1.5131   -0.1691 H   0  0
   -2.5603    3.4294    1.2529 H   0  0
    2.2109   -0.6198    1.0182 H   0  0
    4.4569   -5.0950    1.6640 H   0  0
    6.1836   -2.4804   -1.2721 H   0  0
    6.7540   -5.1048    1.3021 H   0  0
   -5.4740   -0.4836    0.8647 H   0  0
   -4.0965   -0.6552    1.9402 H   0  0
   -4.6628    0.9366    1.4651 H   0  0
   -5.0725    0.3619   -1.6149 H   0  0
   -4.2674    1.7731   -0.9865 H   0  0
   -3.4369    0.7359   -2.1331 H   0  0
   -4.5772   -1.9127   -0.9009 H   0  0
   -2.9480   -1.7386   -1.5129 H   0  0
   -3.2248   -2.3027    0.1364 H   0  0
    8.5815   -5.0370   -0.2353 H   0  0
    7.8076   -3.8155   -1.1781 H   0  0
    9.6458   -2.8123    0.1733 H   0  0
    8.1096   -2.1526    0.7231 H   0  0
    8.9200   -3.4059    1.6630 H   0  0
  1  2  2  0
  1  6  1  0
  1  8  1  0
  2  3  1  0
  2 26  1  0
  3  4  2  0
  3 27  1  0
  4  5  1  0
  4  7  1  0
  5  6  2  0
  5 19  1  0
  6 28  1  0
  7 29  1  0
  8  9  1  0
  8 30  1  0
  9 10  2  0
  9 11  1  0
 11 12  2  0
 11 16  1  0
 12 13  1  0
 12 18  1  0
 13 14  2  0
 13 31  1  0
 14 15  1  0
 14 17  1  0
 15 16  2  0
 15 32  1  0
 16 23  1  0
 17 24  1  0
 17 33  1  0
 19 20  1  0
 19 21  1  0
 19 22  1  0
 20 34  1  0
 20 35  1  0
 20 36  1  0
 21 37  1  0
 21 38  1  0
 21 39  1  0
 22 40  1  0
 22 41  1  0
 22 42  1  0
 24 25  1  0
 24 43  1  0
 24 44  1  0
 25 45  1  0
 25 46  1  0
 25 47  1  0
M  END
> <Name>
ligand_248

> <activity>
1

$$$$
ligand_249
  SciTegic10272118463D

 65 69  0  0  1  0            999 V2000
   -1.4337    9.7893    0.7863 C   0  0
   -2.5167    8.7067    0.8144 C   0  0
   -1.9014    7.4248    0.8054 O   0  0
   -2.6470    6.2903    0.8263 C   0  0
   -3.8813    6.2879    0.8521 O   0  0
   -1.8201    5.0371    0.8106 C   0  0
   -2.4648    3.7927    0.8114 C   0  0
   -1.7268    2.6129    0.7974 C   0  0
   -0.3327    2.6563    0.7728 C   0  0
    0.3250    1.4154    0.7656 N   0  0
    1.5720    1.1145    0.3401 C   0  0
    2.3992    1.9266   -0.0750 O   0  0
    1.9012   -0.2946    0.4195 C   0  0
    3.1596   -0.8645    0.6117 C   0  0
    4.5411   -0.2643    0.8435 C   0  0
    5.5973   -1.3002    0.6881 N   0  0
    5.3143   -2.6110    1.3264 C   0  0
    4.0475   -3.2856    0.7481 C   0  0
    2.9396   -2.2534    0.5859 C   0  0
    1.6844   -2.5520    0.3612 N   0  0
    1.0497   -1.3774    0.2262 N   0  0
   -0.3239   -1.3983   -0.1051 C   0  0
   -1.2311   -2.0674    0.7233 C   0  0
   -2.5895   -2.0421    0.4197 C   0  0
   -3.0389   -1.3502   -0.7061 C   0  0
   -4.3797   -1.3189   -0.9982 O   0  0
   -5.0982   -0.2188   -0.4430 C   0  0
   -5.0632   -0.2319    0.8912 F   0  0
   -4.6439    0.9493   -0.9025 F   0  0
   -6.3705   -0.3371   -0.8183 F   0  0
   -2.1302   -0.7117   -1.5509 C   0  0
   -0.7713   -0.7343   -1.2523 C   0  0
    7.2726   -0.7269    0.7027 S   0  0
    7.4316    0.2627    1.7747 O   0  0
    8.1776   -1.8749    0.5746 O   0  0
    7.3387    0.1621   -0.8688 C   0  0
    7.7111    1.4905   -1.0349 C   0  0
    7.6652    1.8966   -2.3730 C   0  0
    7.2634    0.8776   -3.2269 C   0  0
    6.9384   -0.5996   -2.3768 S   0  0
    0.3232    3.8943    0.7840 C   0  0
   -0.4167    5.0736    0.7998 C   0  0
   -1.8803   10.7837    0.7926 H   0  0
   -0.7779    9.7137    1.6542 H   0  0
   -0.8172    9.7072   -0.1094 H   0  0
   -3.1337    8.8182    1.7077 H   0  0
   -3.1729    8.8118   -0.0512 H   0  0
   -3.5440    3.7243    0.8228 H   0  0
   -2.2493    1.6664    0.7968 H   0  0
   -0.2505    0.6363    1.0484 H   0  0
    4.7599    0.5642    0.1695 H   0  0
    4.6084    0.1307    1.8578 H   0  0
    6.1728   -3.2689    1.1896 H   0  0
    5.2197   -2.4360    2.3991 H   0  0
    4.2832   -3.7171   -0.2254 H   0  0
    3.7460   -4.1179    1.3846 H   0  0
   -0.8900   -2.5904    1.6056 H   0  0
   -3.2954   -2.5485    1.0616 H   0  0
   -2.4808   -0.1910   -2.4300 H   0  0
   -0.0742   -0.2255   -1.9031 H   0  0
    8.0010    2.1387   -0.2207 H   0  0
    7.9159    2.8932   -2.7056 H   0  0
    7.1464    0.9246   -4.2995 H   0  0
    1.3997    3.9656    0.7938 H   0  0
    0.1217    6.0107    0.8074 H   0  0
  1  2  1  0
  1 43  1  0
  1 44  1  0
  1 45  1  0
  2  3  1  0
  2 46  1  0
  2 47  1  0
  3  4  1  0
  4  5  2  0
  4  6  1  0
  6  7  2  0
  6 42  1  0
  7  8  1  0
  7 48  1  0
  8  9  2  0
  8 49  1  0
  9 10  1  0
  9 41  1  0
 10 11  1  0
 10 50  1  0
 11 12  2  0
 11 13  1  0
 13 14  2  0
 13 21  1  0
 14 15  1  0
 14 19  1  0
 15 16  1  0
 15 51  1  0
 15 52  1  0
 16 17  1  0
 16 33  1  0
 17 18  1  0
 17 53  1  0
 17 54  1  0
 18 19  1  0
 18 55  1  0
 18 56  1  0
 19 20  2  0
 20 21  1  0
 21 22  1  0
 22 23  2  0
 22 32  1  0
 23 24  1  0
 23 57  1  0
 24 25  2  0
 24 58  1  0
 25 26  1  0
 25 31  1  0
 26 27  1  0
 27 28  1  0
 27 29  1  0
 27 30  1  0
 31 32  2  0
 31 59  1  0
 32 60  1  0
 33 34  2  0
 33 35  2  0
 33 36  1  0
 36 37  2  0
 36 40  1  0
 37 38  1  0
 37 61  1  0
 38 39  2  0
 38 62  1  0
 39 40  1  0
 39 63  1  0
 41 42  2  0
 41 64  1  0
 42 65  1  0
M  END
> <Name>
ligand_249

> <activity>
1

$$$$
ligand_250
  SciTegic10272118463D

 52 55  0  0  1  0            999 V2000
   -1.7802    3.5310   -0.7649 C   0  0
   -1.3570    3.0064    0.6207 C   0  0
   -2.5568    2.9270    1.5780 C   0  0
   -0.6986    1.7031    0.5303 N   0  0
    0.5652    1.4833    0.1194 C   0  0
    1.3697    2.3747   -0.1590 O   0  0
    0.9316    0.0902    0.1040 N   0  0
    2.2135   -0.3921    0.3418 C   0  0
    3.4615    0.4463    0.6188 C   0  0
    4.5800   -0.4205    1.0799 N   0  0
    4.7271   -1.7176    0.3690 C   0  0
    3.4730   -2.6107    0.5206 C   0  0
    2.2152   -1.7843    0.2863 C   0  0
    0.9059   -2.1552    0.0019 C   0  0
    0.1167   -1.0213   -0.1302 C   0  0
   -1.3343   -1.0032   -0.4873 C   0  0
   -2.2528   -1.6819    0.3099 C   0  0
   -3.6045   -1.6686   -0.0112 C   0  0
   -4.0457   -0.9831   -1.1356 C   0  0
   -3.1339   -0.3153   -1.9425 C   0  0
   -1.7822   -0.3296   -1.6226 C   0  0
    6.0678    0.4072    1.5737 S   0  0
    5.7165    1.6112    2.3356 O   0  0
    7.0175   -0.5851    2.0906 O   0  0
    6.6978    0.9618   -0.0290 C   0  0
    6.4298    2.1907   -0.6206 C   0  0
    7.0399    2.3292   -1.8719 C   0  0
    7.7695    1.2055   -2.2372 C   0  0
    7.7047   -0.0385   -1.0297 S   0  0
   -0.9213    3.6436   -1.4277 H   0  0
   -2.4847    2.8539   -1.2498 H   0  0
   -2.2589    4.5078   -0.6880 H   0  0
   -0.6497    3.7195    1.0513 H   0  0
   -2.2485    2.6054    2.5737 H   0  0
   -3.0407    3.8983    1.6865 H   0  0
   -3.3083    2.2214    1.2202 H   0  0
   -1.2750    0.9011    0.7406 H   0  0
    3.7805    0.9369   -0.3012 H   0  0
    3.2993    1.2255    1.3641 H   0  0
    4.9332   -1.4955   -0.6790 H   0  0
    5.6005   -2.2405    0.7596 H   0  0
    3.5339   -3.4600   -0.1603 H   0  0
    3.4484   -3.0322    1.5261 H   0  0
    0.5610   -3.1719   -0.1162 H   0  0
   -1.9208   -2.2170    1.1880 H   0  0
   -4.3129   -2.1919    0.6142 H   0  0
   -5.0968   -0.9725   -1.3845 H   0  0
   -3.4752    0.2150   -2.8194 H   0  0
   -1.0806    0.1930   -2.2570 H   0  0
    5.8165    2.9542   -0.1642 H   0  0
    6.9517    3.2127   -2.4870 H   0  0
    8.3320    1.0522   -3.1463 H   0  0
  1  2  1  0
  1 30  1  0
  1 31  1  0
  1 32  1  0
  2  3  1  0
  2  4  1  0
  2 33  1  0
  3 34  1  0
  3 35  1  0
  3 36  1  0
  4  5  1  0
  4 37  1  0
  5  6  2  0
  5  7  1  0
  7  8  1  0
  7 15  1  0
  8  9  1  0
  8 13  2  0
  9 10  1  0
  9 38  1  0
  9 39  1  0
 10 11  1  0
 10 22  1  0
 11 12  1  0
 11 40  1  0
 11 41  1  0
 12 13  1  0
 12 42  1  0
 12 43  1  0
 13 14  1  0
 14 15  2  0
 14 44  1  0
 15 16  1  0
 16 17  2  0
 16 21  1  0
 17 18  1  0
 17 45  1  0
 18 19  2  0
 18 46  1  0
 19 20  1  0
 19 47  1  0
 20 21  2  0
 20 48  1  0
 21 49  1  0
 22 23  2  0
 22 24  2  0
 22 25  1  0
 25 26  2  0
 25 29  1  0
 26 27  1  0
 26 50  1  0
 27 28  2  0
 27 51  1  0
 28 29  1  0
 28 52  1  0
M  END
> <Name>
ligand_250

> <activity>
1

$$$$
ligand_251
  SciTegic10272118463D

 67 72  0  0  1  0            999 V2000
    2.5099    1.4099   -0.6345 O   0  0
    1.5806    0.8207   -0.0819 C   0  0
    0.3828    1.3644    0.2281 N   0  0
   -0.0927    2.6620   -0.0272 C   0  0
   -1.4797    2.8201   -0.0224 C   0  0
   -2.0436    4.0711   -0.2559 C   0  0
   -1.2237    5.1818   -0.4783 C   0  0
    0.1674    5.0236   -0.4857 C   0  0
    0.7331    3.7731   -0.2529 C   0  0
   -1.8481    6.5283   -0.7510 C   0  0
   -2.6825    6.6098   -1.6556 O   0  0
   -1.4488    7.6029   -0.0129 N   0  0
   -1.9900    8.9452   -0.2942 C   0  0
   -3.0377    9.2392    0.8032 C   0  0
   -2.4596    9.1155    2.1019 O   0  0
   -1.8805    7.8369    2.3589 C   0  0
   -0.7995    7.4930    1.3082 C   0  0
    1.7253   -0.5640    0.3172 C   0  0
    2.8986   -1.2203    0.6892 C   0  0
    4.3392   -0.7496    0.8502 C   0  0
    5.2609   -1.9104    0.9759 N   0  0
    4.8034   -3.0037    1.8710 C   0  0
    3.4745   -3.6367    1.3940 C   0  0
    2.5079   -2.5440    0.9572 C   0  0
    1.2304   -2.7354    0.7434 N   0  0
    0.7482   -1.5542    0.3251 N   0  0
   -0.6112   -1.4937   -0.0606 C   0  0
   -1.6107   -1.9032    0.8226 C   0  0
   -2.9457   -1.8305    0.4450 C   0  0
   -3.2886   -1.3544   -0.8141 C   0  0
   -2.2965   -0.9546   -1.7003 C   0  0
   -0.9602   -1.0268   -1.3280 C   0  0
    6.9941   -1.5490    0.9438 S   0  0
    7.2537   -0.3698    1.7781 O   0  0
    7.7511   -2.7943    1.1146 O   0  0
    7.2023   -1.0488   -0.7797 C   0  0
    7.7413    0.1554   -1.2161 C   0  0
    7.7734    0.2537   -2.6115 C   0  0
    7.2644   -0.8763   -3.2383 C   0  0
    6.7402   -2.0767   -2.1005 S   0  0
   -0.2952    0.7445    0.6458 H   0  0
   -2.1300    1.9743    0.1522 H   0  0
   -3.1201    4.1715   -0.2588 H   0  0
    0.8174    5.8681   -0.6678 H   0  0
    1.8089    3.6939   -0.2422 H   0  0
   -1.1793    9.6723   -0.2347 H   0  0
   -2.4271    9.0291   -1.2905 H   0  0
   -3.4263   10.2511    0.6881 H   0  0
   -3.8900    8.5619    0.7183 H   0  0
   -1.4418    7.8469    3.3567 H   0  0
   -2.6664    7.0788    2.3678 H   0  0
   -0.3730    6.5130    1.5160 H   0  0
    0.0128    8.2185    1.3633 H   0  0
    4.6739   -0.1237    0.0226 H   0  0
    4.4342   -0.1491    1.7555 H   0  0
    5.5756   -3.7714    1.9225 H   0  0
    4.7091   -2.5842    2.8737 H   0  0
    3.6745   -4.2989    0.5508 H   0  0
    3.0581   -4.2651    2.1818 H   0  0
   -1.3561   -2.2728    1.8059 H   0  0
   -3.7182   -2.1445    1.1317 H   0  0
   -4.3272   -1.2983   -1.1057 H   0  0
   -2.5641   -0.5880   -2.6805 H   0  0
   -0.1979   -0.7145   -2.0279 H   0  0
    8.0936    0.9309   -0.5516 H   0  0
    8.1533    1.1139   -3.1429 H   0  0
    7.1757   -1.0575   -4.2993 H   0  0
  1  2  2  0
  2  3  1  0
  2 18  1  0
  3  4  1  0
  3 41  1  0
  4  5  2  0
  4  9  1  0
  5  6  1  0
  5 42  1  0
  6  7  2  0
  6 43  1  0
  7  8  1  0
  7 10  1  0
  8  9  2  0
  8 44  1  0
  9 45  1  0
 10 11  2  0
 10 12  1  0
 12 13  1  0
 12 17  1  0
 13 14  1  0
 13 46  1  0
 13 47  1  0
 14 15  1  0
 14 48  1  0
 14 49  1  0
 15 16  1  0
 16 17  1  0
 16 50  1  0
 16 51  1  0
 17 52  1  0
 17 53  1  0
 18 19  2  0
 18 26  1  0
 19 20  1  0
 19 24  1  0
 20 21  1  0
 20 54  1  0
 20 55  1  0
 21 22  1  0
 21 33  1  0
 22 23  1  0
 22 56  1  0
 22 57  1  0
 23 24  1  0
 23 58  1  0
 23 59  1  0
 24 25  2  0
 25 26  1  0
 26 27  1  0
 27 28  2  0
 27 32  1  0
 28 29  1  0
 28 60  1  0
 29 30  2  0
 29 61  1  0
 30 31  1  0
 30 62  1  0
 31 32  2  0
 31 63  1  0
 32 64  1  0
 33 34  2  0
 33 35  2  0
 33 36  1  0
 36 37  2  0
 36 40  1  0
 37 38  1  0
 37 65  1  0
 38 39  2  0
 38 66  1  0
 39 40  1  0
 39 67  1  0
M  END
> <Name>
ligand_251

> <activity>
1

$$$$
ligand_252
  SciTegic10272118463D

 61 63  0  0  1  0            999 V2000
   20.8802   -2.2753    1.1398 C   0  0
   14.4858   -7.0437    1.2340 C   0  0
   20.4027   -5.6864   -0.3246 C   0  0
   15.5088   -3.9940   -0.4306 C   0  0
   14.0114   -7.2991   -0.2130 C   0  0
   14.0939   -5.3445   -2.6126 O   0  0
   18.9295   -6.0832   -0.4812 C   0  0
   11.7833   -6.4154    0.4408 C   0  0
   18.5972   -3.2411    1.3086 C   0  0
   12.0245   -2.6370    0.4573 C   0  0
   11.8971   -4.3421   -1.8472 O   0  0
   17.6993   -3.3721    0.3105 N   0  0
   14.1155   -3.8585   -0.4317 C   0  0
   18.3242   -3.0190    2.4893 O   0  0
   21.9553   -3.8727   -0.0008 N   0  0
   20.7130   -4.2773    0.1812 C   0  0
   13.3816   -7.1113    2.1372 O   0  0
   12.3442   -6.1711    1.8566 C   0  0
   13.1846   -4.9664   -1.5235 S   0  0
   13.5254   -2.8910    0.4093 C   0  0
   15.7118   -2.2543    1.2326 C   0  0
   22.0605   -2.6699    0.5781 N   0  0
   23.3336   -1.9408    0.5698 C   0  0
   14.3316   -2.1019    1.2340 C   0  0
   16.3063   -3.2071    0.3992 C   0  0
   12.8581   -6.4420   -0.5804 N   0  0
   19.9638   -3.2813    0.8728 C   0  0
   24.4140   -2.7295    1.3377 C   0  0
   23.7626   -1.6159   -0.8756 C   0  0
   18.8838   -7.4140   -0.9754 O   0  0
   17.5673   -7.9023   -1.1738 C   0  0
   20.7944   -1.3300    1.6559 H   0  0
   15.2234   -7.7902    1.5284 H   0  0
   14.9600   -6.0666    1.3294 H   0  0
   20.8804   -5.8355   -1.2949 H   0  0
   20.8779   -6.4089    0.3404 H   0  0
   15.9768   -4.7260   -1.0734 H   0  0
   14.8127   -7.1432   -0.9332 H   0  0
   13.6945   -8.3362   -0.3273 H   0  0
   18.4109   -6.0282    0.4776 H   0  0
   18.4349   -5.4175   -1.1899 H   0  0
   11.2785   -7.3813    0.4024 H   0  0
   11.0345   -5.6761    0.1607 H   0  0
   11.4671   -3.5578    0.6098 H   0  0
   11.7492   -1.9650    1.2713 H   0  0
   11.6892   -2.1734   -0.4707 H   0  0
   18.0553   -3.6195   -0.6007 H   0  0
   12.7463   -5.1625    1.9562 H   0  0
   11.5561   -6.2814    2.6016 H   0  0
   16.3080   -1.6127    1.8646 H   0  0
   23.1687   -0.9971    1.0930 H   0  0
   13.8918   -1.3532    1.8771 H   0  0
   25.3437   -2.1628    1.3976 H   0  0
   24.0977   -2.9446    2.3592 H   0  0
   24.6414   -3.6807    0.8541 H   0  0
   24.6707   -1.0122   -0.8878 H   0  0
   23.9637   -2.5204   -1.4515 H   0  0
   22.9906   -1.0528   -1.4018 H   0  0
   17.6102   -8.9175   -1.5678 H   0  0
   17.0142   -7.9326   -0.2346 H   0  0
   17.0177   -7.2887   -1.8894 H   0  0
  1 22  1  0
  1 27  2  0
  1 32  1  0
  2  5  1  0
  2 17  1  0
  2 33  1  0
  2 34  1  0
  3 16  1  0
  3  7  1  0
  3 35  1  0
  3 36  1  0
  4 13  2  0
  4 25  1  0
  4 37  1  0
  5 26  1  0
  5 38  1  0
  5 39  1  0
  6 19  2  0
  7 30  1  0
  7 40  1  0
  7 41  1  0
  8 18  1  0
  8 26  1  0
  8 42  1  0
  8 43  1  0
  9 14  2  0
  9 12  1  0
  9 27  1  0
 10 20  1  0
 10 44  1  0
 10 45  1  0
 10 46  1  0
 11 19  2  0
 12 25  1  0
 12 47  1  0
 13 20  1  0
 13 19  1  0
 15 16  2  0
 15 22  1  0
 16 27  1  0
 17 18  1  0
 18 48  1  0
 18 49  1  0
 19 26  1  0
 20 24  2  0
 21 24  1  0
 21 25  2  0
 21 50  1  0
 22 23  1  0
 23 28  1  0
 23 29  1  0
 23 51  1  0
 24 52  1  0
 28 53  1  0
 28 54  1  0
 28 55  1  0
 29 56  1  0
 29 57  1  0
 29 58  1  0
 30 31  1  0
 31 59  1  0
 31 60  1  0
 31 61  1  0
M  END
> <Name>
ligand_252

> <activity>
1

$$$$
ligand_253
  SciTegic10272118463D

 52 56  0  0  1  0            999 V2000
    1.2274    2.2333    1.1394 O   0  0
    0.6158    1.3924    0.4798 C   0  0
   -0.4759    1.6358   -0.2788 N   0  0
   -1.1739    2.8415   -0.4634 C   0  0
   -2.4858    2.7349   -0.9188 C   0  0
   -3.2503    3.8738   -1.1388 C   0  0
   -2.7063    5.1309   -0.9133 C   0  0
   -1.3955    5.2490   -0.4716 C   0  0
   -0.6280    4.1122   -0.2494 C   0  0
    1.0655    0.0158    0.4497 C   0  0
    2.3716   -0.4523    0.5967 C   0  0
    3.7091    0.2567    0.7795 C   0  0
    4.7767   -0.7112    1.1525 N   0  0
    4.7728   -1.9955    0.4046 C   0  0
    3.4630   -2.7916    0.6106 C   0  0
    2.2700   -1.8516    0.5063 C   0  0
    1.0307   -2.2498    0.3656 N   0  0
    0.2857   -1.1329    0.3615 N   0  0
   -1.1202   -1.2757    0.3024 C   0  0
   -1.7092   -2.0060   -0.7303 C   0  0
   -3.0913   -2.1339   -0.7920 C   0  0
   -3.8897   -1.5392    0.1767 C   0  0
   -3.3073   -0.8192    1.2120 C   0  0
   -1.9259   -0.6897    1.2789 C   0  0
    6.3526   -0.0262    1.5886 S   0  0
    6.1448    1.1793    2.3994 O   0  0
    7.2396   -1.1097    2.0280 O   0  0
    6.9456    0.5219   -0.0303 C   0  0
    6.7701    1.7918   -0.5674 C   0  0
    7.3221    1.9151   -1.8470 C   0  0
    7.9146    0.7392   -2.2882 C   0  0
    7.7916   -0.5354   -1.1177 S   0  0
   -0.8929    0.8370   -0.7332 H   0  0
   -2.9268    1.7644   -1.0991 H   0  0
   -4.2687    3.7811   -1.4865 H   0  0
   -3.3007    6.0162   -1.0856 H   0  0
   -0.9693    6.2273   -0.3042 H   0  0
    0.3924    4.2435    0.0755 H   0  0
    4.0007    0.7322   -0.1573 H   0  0
    3.6700    1.0437    1.5330 H   0  0
    4.9326   -1.7600   -0.6486 H   0  0
    5.6232   -2.5976    0.7256 H   0  0
    3.4077   -3.6082   -0.1099 H   0  0
    3.4740   -3.2559    1.5973 H   0  0
   -1.0982   -2.4708   -1.4912 H   0  0
   -3.5455   -2.6964   -1.5945 H   0  0
   -4.9641   -1.6395    0.1268 H   0  0
   -3.9290   -0.3602    1.9668 H   0  0
   -1.4853   -0.1285    2.0909 H   0  0
    6.2625    2.5949   -0.0530 H   0  0
    7.2897    2.8247   -2.4285 H   0  0
    8.4088    0.5645   -3.2325 H   0  0
  1  2  2  0
  2  3  1  0
  2 10  1  0
  3  4  1  0
  3 33  1  0
  4  5  2  0
  4  9  1  0
  5  6  1  0
  5 34  1  0
  6  7  2  0
  6 35  1  0
  7  8  1  0
  7 36  1  0
  8  9  2  0
  8 37  1  0
  9 38  1  0
 10 11  2  0
 10 18  1  0
 11 12  1  0
 11 16  1  0
 12 13  1  0
 12 39  1  0
 12 40  1  0
 13 14  1  0
 13 25  1  0
 14 15  1  0
 14 41  1  0
 14 42  1  0
 15 16  1  0
 15 43  1  0
 15 44  1  0
 16 17  2  0
 17 18  1  0
 18 19  1  0
 19 20  2  0
 19 24  1  0
 20 21  1  0
 20 45  1  0
 21 22  2  0
 21 46  1  0
 22 23  1  0
 22 47  1  0
 23 24  2  0
 23 48  1  0
 24 49  1  0
 25 26  2  0
 25 27  2  0
 25 28  1  0
 28 29  2  0
 28 32  1  0
 29 30  1  0
 29 50  1  0
 30 31  2  0
 30 51  1  0
 31 32  1  0
 31 52  1  0
M  END
> <Name>
ligand_253

> <activity>
1

$$$$
ligand_254
  SciTegic10272118463D

 63 67  0  0  1  0            999 V2000
   26.7442    1.7104   -4.3887 C   0  0
   26.5473    0.3725   -4.0476 C   0  0
   26.3310   -0.0307   -2.7277 C   0  0
   26.7323    2.7124   -3.4185 C   0  0
   26.5162    2.3389   -2.0845 C   0  0
   26.3197    0.9757   -1.7515 C   0  0
   26.1427    0.9746   -0.3754 N   0  0
   26.2262    2.3075    0.0186 C   0  0
   26.4587    3.1303   -0.9740 N   0  0
   25.9019   -0.2259    0.4549 C   0  0  1  0  0  0
   26.9981   -0.4124    1.5329 C   0  0
   26.6627   -0.2146    2.8222 N   0  0
   28.1395   -0.7124    1.1807 O   0  0
   26.0906    2.8093    1.4116 C   0  0
   24.8312    2.9747    1.9981 C   0  0
   24.7588    3.4656    3.3029 C   0  0
   25.8572    3.8005    4.0269 N   0  0
   27.0723    3.6466    3.4410 C   0  0
   27.2316    3.1585    2.1431 C   0  0
   27.5486   -0.3584    3.9789 C   0  0
   24.4084   -0.3396    0.9347 C   0  0
   26.9385    0.2652    5.2557 C   0  0
   27.8742    0.1605    6.4764 C   0  0
   28.3167   -1.2914    6.7340 C   0  0
   28.9399   -1.9243    5.4764 C   0  0
   28.0060   -1.8151    4.2542 C   0  0
   23.3705    0.0323   -0.1639 C   0  0
   21.9129   -0.0917    0.3221 C   0  0
   21.6145   -1.4883    0.8939 C   0  0
   22.6218   -1.8733    1.9912 C   0  0
   24.0774   -1.7520    1.4995 C   0  0
   26.9083    1.9747   -5.4233 H   0  0
   26.5631   -0.3743   -4.8281 H   0  0
   26.1804   -1.0724   -2.4869 H   0  0
   26.8845    3.7465   -3.6905 H   0  0
   26.0562   -1.0786   -0.2074 H   0  0
   25.7097    0.0456    3.0284 H   0  0
   23.9295    2.7329    1.4545 H   0  0
   23.8031    3.6037    3.7869 H   0  0
   27.9316    3.9215    4.0350 H   0  0
   28.2180    3.0514    1.7155 H   0  0
   28.4370    0.2302    3.7353 H   0  0
   24.2590    0.3663    1.7510 H   0  0
   26.6929    1.3123    5.0811 H   0  0
   25.9924   -0.2283    5.4847 H   0  0
   28.7541    0.7847    6.3126 H   0  0
   27.3782    0.5613    7.3613 H   0  0
   29.0276   -1.3245    7.5605 H   0  0
   27.4555   -1.8828    7.0490 H   0  0
   29.8863   -1.4291    5.2530 H   0  0
   29.1827   -2.9704    5.6674 H   0  0
   27.1293   -2.4454    4.4118 H   0  0
   28.5149   -2.2251    3.3812 H   0  0
   23.5254    1.0542   -0.5114 H   0  0
   23.5168   -0.6084   -1.0351 H   0  0
   21.7225    0.6618    1.0881 H   0  0
   21.2274    0.1286   -0.4972 H   0  0
   20.5987   -1.5213    1.2900 H   0  0
   21.6528   -2.2255    0.0904 H   0  0
   22.4779   -1.2286    2.8597 H   0  0
   22.4276   -2.8909    2.3326 H   0  0
   24.2555   -2.5024    0.7274 H   0  0
   24.7420   -2.0119    2.3231 H   0  0
  1  2  2  0
  1  4  1  0
  1 32  1  0
  2  3  1  0
  2 33  1  0
  3  6  2  0
  3 34  1  0
  4  5  2  0
  4 35  1  0
  5  6  1  0
  5  9  1  0
  6  7  1  0
  7  8  1  0
  7 10  1  0
  8  9  2  0
  8 14  1  0
 10 11  1  0
 10 21  1  0
 10 36  1  0
 11 12  1  0
 11 13  2  0
 12 20  1  0
 12 37  1  0
 14 15  1  0
 14 19  2  0
 15 16  2  0
 15 38  1  0
 16 17  1  0
 16 39  1  0
 17 18  2  0
 18 19  1  0
 18 40  1  0
 19 41  1  0
 20 22  1  0
 20 26  1  0
 20 42  1  0
 21 27  1  0
 21 31  1  0
 21 43  1  0
 22 23  1  0
 22 44  1  0
 22 45  1  0
 23 24  1  0
 23 46  1  0
 23 47  1  0
 24 25  1  0
 24 48  1  0
 24 49  1  0
 25 26  1  0
 25 50  1  0
 25 51  1  0
 26 52  1  0
 26 53  1  0
 27 28  1  0
 27 54  1  0
 27 55  1  0
 28 29  1  0
 28 56  1  0
 28 57  1  0
 29 30  1  0
 29 58  1  0
 29 59  1  0
 30 31  1  0
 30 60  1  0
 30 61  1  0
 31 62  1  0
 31 63  1  0
M  END
> <Name>
ligand_254

> <activity>
1

$$$$
ligand_255
  SciTegic10272118463D

 66 70  0  0  1  0            999 V2000
   -5.3573  -19.5397    0.8013 C   0  0
   -6.2959  -18.9532   -0.2627 C   0  0
   -7.6565  -19.6960   -0.4089 C   0  0
   -5.1131  -21.0469    0.5900 C   0  0
   -6.4102  -21.9177    0.5149 C   0  0  1  0  0  0
   -7.3803  -21.2475   -0.5420 C   0  0  1  0  0  0
   -8.6339  -22.1213   -0.8066 C   0  0
   -8.2595  -23.5367   -1.2913 C   0  0
   -6.0577  -23.3713   -0.0216 C   0  0  2  0  0  0
   -7.2740  -24.3207   -0.3672 C   0  0  2  0  0  0
   -4.3985  -25.3339   -0.0538 C   0  0  2  0  0  0
   -4.9462  -24.1380    0.7516 C   0  0
   -5.4900  -26.3595   -0.5194 C   0  0  1  0  0  0
   -6.7084  -25.5713   -1.1672 C   0  0  1  0  0  0
   -7.8058  -26.5152   -1.7805 C   0  0
   -7.2178  -27.7691   -2.4146 C   0  0
   -4.8751  -27.2207   -1.6862 C   0  0  2  0  0  0
   -5.9110  -28.0834   -2.3468 C   0  0
   -5.3030  -29.2909   -2.8548 C   0  0
   -4.0205  -29.2655   -2.4330 O   0  0
   -3.8359  -28.3077   -1.3914 C   0  0
   -7.0083  -21.9982    1.9540 C   0  0
   -8.0713  -24.7683    0.9013 C   0  0
   -5.9619  -27.2167    0.6963 C   0  0
   -8.2897  -19.1622   -1.7234 C   0  0
   -8.5726  -19.3526    0.7931 C   0  0
   -5.8157  -30.1854   -3.5257 O   0  0
   -3.3270  -25.9272    0.6599 O   0  0
   -4.4028  -19.0126    0.7692 H   0  0
   -5.7554  -19.3461    1.7965 H   0  0
   -6.4613  -17.8950   -0.0527 H   0  0
   -5.7624  -18.9775   -1.2152 H   0  0
   -4.5347  -21.1708   -0.3273 H   0  0
   -4.4644  -21.3894    1.3964 H   0  0
   -6.8261  -21.3099   -1.4822 H   0  0
   -9.2677  -22.1694    0.0769 H   0  0
   -9.2609  -21.6767   -1.5774 H   0  0
   -9.1797  -24.1050   -1.4344 H   0  0
   -7.8246  -23.4372   -2.2876 H   0  0
   -5.5893  -23.1678   -0.9879 H   0  0
   -3.9249  -24.9075   -0.9402 H   0  0
   -4.1042  -23.4796    0.9582 H   0  0
   -5.2938  -24.4710    1.7278 H   0  0
   -6.2675  -25.1159   -2.0580 H   0  0
   -8.5246  -26.8445   -1.0334 H   0  0
   -8.3808  -25.9889   -2.5424 H   0  0
   -7.8987  -28.4540   -2.9016 H   0  0
   -4.4586  -26.5580   -2.4488 H   0  0
   -2.8180  -27.9171   -1.3953 H   0  0
   -4.0046  -28.8006   -0.4342 H   0  0
   -8.0734  -22.2119    1.9652 H   0  0
   -6.5184  -22.7610    2.5567 H   0  0
   -6.8822  -21.0828    2.5250 H   0  0
   -7.4546  -24.8470    1.7922 H   0  0
   -8.8721  -24.0803    1.1623 H   0  0
   -8.5639  -25.7296    0.7795 H   0  0
   -6.7922  -27.8743    0.4406 H   0  0
   -5.1656  -27.8544    1.0765 H   0  0
   -6.2714  -26.6180    1.5467 H   0  0
   -8.3385  -18.0722   -1.7259 H   0  0
   -7.7216  -19.4588   -2.6063 H   0  0
   -9.3137  -19.5092   -1.8589 H   0  0
   -8.8471  -18.2970    0.7798 H   0  0
   -9.5041  -19.9176    0.7660 H   0  0
   -8.1099  -19.5257    1.7594 H   0  0
   -2.9242  -26.5992    0.1063 H   0  0
  1  2  1  0
  1  4  1  0
  1 29  1  0
  1 30  1  0
  2  3  1  0
  2 31  1  0
  2 32  1  0
  3  6  1  0
  3 25  1  0
  3 26  1  0
  4  5  1  0
  4 33  1  0
  4 34  1  0
  5  6  1  0
  5  9  1  0
  5 22  1  0
  6  7  1  0
  6 35  1  0
  7  8  1  0
  7 36  1  0
  7 37  1  0
  8 10  1  0
  8 38  1  0
  8 39  1  0
  9 10  1  0
  9 12  1  0
  9 40  1  0
 10 14  1  0
 10 23  1  0
 11 12  1  0
 11 13  1  0
 11 28  1  0
 11 41  1  0
 12 42  1  0
 12 43  1  0
 13 14  1  0
 13 17  1  0
 13 24  1  0
 14 15  1  0
 14 44  1  0
 15 16  1  0
 15 45  1  0
 15 46  1  0
 16 18  2  0
 16 47  1  0
 17 18  1  0
 17 21  1  0
 17 48  1  0
 18 19  1  0
 19 20  1  0
 19 27  2  0
 20 21  1  0
 21 49  1  0
 21 50  1  0
 22 51  1  0
 22 52  1  0
 22 53  1  0
 23 54  1  0
 23 55  1  0
 23 56  1  0
 24 57  1  0
 24 58  1  0
 24 59  1  0
 25 60  1  0
 25 61  1  0
 25 62  1  0
 26 63  1  0
 26 64  1  0
 26 65  1  0
 28 66  1  0
M  END
> <Name>
ligand_255

> <activity>
1

$$$$
ligand_256
  SciTegic10272118463D

 59 63  0  0  1  0            999 V2000
   -3.6878    8.4583   -0.2219 C   0  0
   -2.5659    7.4320   -0.0996 C   0  0
   -1.4107    7.8304    0.0422 O   0  0
   -2.9445    6.1388   -0.1765 N   0  0
   -2.1538    4.9779   -0.0849 C   0  0
   -2.7212    3.8045   -0.5853 C   0  0
   -2.0185    2.6044   -0.5280 C   0  0
   -0.7474    2.5612    0.0468 C   0  0
   -0.1110    1.3082    0.0502 N   0  0
    0.8858    0.8635    0.8471 C   0  0
    1.4484    1.5237    1.7212 O   0  0
    1.2958   -0.5000    0.5820 C   0  0
    2.5624   -1.0533    0.7675 C   0  0
    3.8860   -0.4657    1.2411 C   0  0
    5.0152   -1.3707    0.8966 N   0  0
    4.7873   -2.8147    1.1602 C   0  0
    3.5971   -3.3811    0.3496 C   0  0
    2.4338   -2.3991    0.3827 C   0  0
    1.2074   -2.6988    0.0358 N   0  0
    0.4983   -1.5683    0.1844 N   0  0
   -0.8960   -1.6263   -0.0451 C   0  0
   -1.3888   -2.1054   -1.2593 C   0  0
   -2.7588   -2.1497   -1.4857 C   0  0
   -3.6415   -1.7217   -0.5021 C   0  0
   -3.1558   -1.2528    0.7118 C   0  0
   -1.7870   -1.2079    0.9435 C   0  0
    6.6454   -0.7371    1.1718 S   0  0
    6.6805   -0.0504    2.4683 O   0  0
    7.6298   -1.7665    0.8192 O   0  0
    6.7371    0.5289   -0.1138 C   0  0
    7.0293    1.8722    0.0893 C   0  0
    7.0297    2.6065   -1.1017 C   0  0
    6.7435    1.8231   -2.2122 C   0  0
    6.4711    0.1624   -1.7900 S   0  0
   -0.1732    3.7365    0.5521 C   0  0
   -0.8756    4.9372    0.4929 C   0  0
   -3.7260    9.0787    0.6736 H   0  0
   -3.5095    9.1071   -1.0797 H   0  0
   -4.6614    7.9837   -0.3496 H   0  0
   -3.9225    5.9684   -0.3561 H   0  0
   -3.7070    3.8145   -1.0281 H   0  0
   -2.4737    1.7082   -0.9260 H   0  0
   -0.5015    0.6374   -0.5947 H   0  0
    4.0830    0.5208    0.8206 H   0  0
    3.8725   -0.3474    2.3252 H   0  0
    5.6928   -3.3707    0.9161 H   0  0
    4.6288   -2.9274    2.2337 H   0  0
    3.9079   -3.5362   -0.6842 H   0  0
    3.3194   -4.3631    0.7339 H   0  0
   -0.7114   -2.4387   -2.0329 H   0  0
   -3.1380   -2.5175   -2.4278 H   0  0
   -4.7063   -1.7568   -0.6802 H   0  0
   -3.8433   -0.9239    1.4774 H   0  0
   -1.4222   -0.8430    1.8933 H   0  0
    7.2309    2.3023    1.0596 H   0  0
    7.2317    3.6664   -1.1520 H   0  0
    6.6826    2.1389   -3.2432 H   0  0
    0.8152    3.7455    0.9846 H   0  0
   -0.4107    5.8167    0.9099 H   0  0
  1  2  1  0
  1 37  1  0
  1 38  1  0
  1 39  1  0
  2  3  2  0
  2  4  1  0
  4  5  1  0
  4 40  1  0
  5  6  2  0
  5 36  1  0
  6  7  1  0
  6 41  1  0
  7  8  2  0
  7 42  1  0
  8  9  1  0
  8 35  1  0
  9 10  1  0
  9 43  1  0
 10 11  2  0
 10 12  1  0
 12 13  2  0
 12 20  1  0
 13 14  1  0
 13 18  1  0
 14 15  1  0
 14 44  1  0
 14 45  1  0
 15 16  1  0
 15 27  1  0
 16 17  1  0
 16 46  1  0
 16 47  1  0
 17 18  1  0
 17 48  1  0
 17 49  1  0
 18 19  2  0
 19 20  1  0
 20 21  1  0
 21 22  2  0
 21 26  1  0
 22 23  1  0
 22 50  1  0
 23 24  2  0
 23 51  1  0
 24 25  1  0
 24 52  1  0
 25 26  2  0
 25 53  1  0
 26 54  1  0
 27 28  2  0
 27 29  2  0
 27 30  1  0
 30 31  2  0
 30 34  1  0
 31 32  1  0
 31 55  1  0
 32 33  2  0
 32 56  1  0
 33 34  1  0
 33 57  1  0
 35 36  2  0
 35 58  1  0
 36 59  1  0
M  END
> <Name>
ligand_256

> <activity>
1

$$$$
ligand_257
  SciTegic10272118463D

 75 80  0  0  1  0            999 V2000
    6.7654   -6.9962    3.0168 O   0  5
    6.3834   -5.9127    3.5134 C   0  0
    7.1391   -5.0412    3.9964 O   0  0
    4.8723   -5.6243    3.5720 C   0  0
    4.0692   -6.1924    2.3675 C   0  0  1  0  0  0
    2.5513   -6.1924    2.6671 C   0  0
    1.7051   -6.7212    1.4892 C   0  0
    2.0309   -6.0772    0.1165 C   0  0  2  0  0  0
    3.5564   -6.0025   -0.1436 C   0  0
    4.3742   -5.4510    1.0411 C   0  0
    1.2496   -4.8956   -0.2696 N   0  0
    1.2308   -3.6684    0.2831 C   0  0
    1.8725   -3.3712    1.2886 O   0  0
    0.3508   -2.5813   -0.3869 C   0  0  2  0  0  0
   -0.3784   -2.9671   -1.7249 C   0  0
   -1.5654   -2.0207   -2.0482 C   0  0
   -2.3485   -2.4653   -3.2998 C   0  0
   -1.4274   -2.6315   -4.5230 C   0  0
   -0.2403   -3.5651   -4.2200 C   0  0
    0.5395   -3.1113   -2.9700 C   0  0
    1.0137   -1.2576   -0.4761 N   0  0
    0.4953   -0.0323   -0.0673 C   0  0
    1.2797    0.9814   -0.3389 N   0  0
    2.3900    0.4294   -0.9076 C   0  0
    3.5484    1.0701   -1.3674 C   0  0
    4.5639    0.2859   -1.9139 C   0  0
    5.6906    0.8843   -2.3632 F   0  0
    4.4363   -1.1016   -2.0030 C   0  0
    5.4450   -1.8267   -2.5379 F   0  0
    3.2922   -1.7657   -1.5547 C   0  0
    2.2684   -0.9783   -1.0078 C   0  0
   -0.8222    0.1690    0.6011 C   0  0
   -1.1349   -0.4570    1.8130 C   0  0
   -2.3779   -0.2384    2.4091 C   0  0
   -3.2889    0.6198    1.7771 C   0  0
   -2.9923    1.2481    0.6033 N   0  0
   -1.7778    1.0234    0.0420 C   0  0
   -4.5642    0.8573    2.3503 N   0  0
   -5.2943    0.0105    3.1555 C   0  0
   -6.4636    0.6780    3.4635 C   0  0
   -6.3538    1.9041    2.8069 C   0  0
   -5.2266    2.0152    2.1419 N   0  0
    4.7018   -4.5502    3.6645 H   0  0
    4.5102   -6.0688    4.4998 H   0  0
    4.3460   -7.2402    2.2309 H   0  0
    2.3506   -6.8049    3.5474 H   0  0
    2.2268   -5.1891    2.9382 H   0  0
    1.8828   -7.7951    1.4115 H   0  0
    0.6428   -6.6195    1.7150 H   0  0
    1.6493   -6.7828   -0.6236 H   0  0
    3.9190   -7.0088   -0.3599 H   0  0
    3.7615   -5.4206   -1.0434 H   0  0
    4.1873   -4.3842    1.1580 H   0  0
    5.4353   -5.5347    0.8027 H   0  0
    0.6778   -5.0239   -1.0910 H   0  0
   -0.4470   -2.4847    0.3456 H   0  0
   -0.8378   -3.9445   -1.5618 H   0  0
   -2.2473   -1.9657   -1.1983 H   0  0
   -1.1967   -1.0067   -2.2085 H   0  0
   -2.8526   -3.4110   -3.0945 H   0  0
   -3.1358   -1.7439   -3.5220 H   0  0
   -1.9973   -3.0144   -5.3705 H   0  0
   -1.0500   -1.6537   -4.8268 H   0  0
   -0.6065   -4.5820   -4.0702 H   0  0
    0.4281   -3.6070   -5.0809 H   0  0
    1.0159   -2.1562   -3.1921 H   0  0
    1.3460   -3.8186   -2.7780 H   0  0
    3.6566    2.1424   -1.3002 H   0  0
    3.2173   -2.8399   -1.6301 H   0  0
   -0.4178   -1.1079    2.2929 H   0  0
   -2.6132   -0.7221    3.3456 H   0  0
   -1.5798    1.5415   -0.8854 H   0  0
   -4.9295   -0.9691    3.4267 H   0  0
   -7.2825    0.3281    4.0747 H   0  0
   -7.0867    2.6977    2.8157 H   0  0
  1  2  1  0
  2  3  2  0
  2  4  1  0
  4  5  1  0
  4 43  1  0
  4 44  1  0
  5  6  1  0
  5 10  1  0
  5 45  1  0
  6  7  1  0
  6 46  1  0
  6 47  1  0
  7  8  1  0
  7 48  1  0
  7 49  1  0
  8  9  1  0
  8 11  1  0
  8 50  1  0
  9 10  1  0
  9 51  1  0
  9 52  1  0
 10 53  1  0
 10 54  1  0
 11 12  1  0
 11 55  1  0
 12 13  2  0
 12 14  1  0
 14 15  1  0
 14 21  1  0
 14 56  1  0
 15 16  1  0
 15 20  1  0
 15 57  1  0
 16 17  1  0
 16 58  1  0
 16 59  1  0
 17 18  1  0
 17 60  1  0
 17 61  1  0
 18 19  1  0
 18 62  1  0
 18 63  1  0
 19 20  1  0
 19 64  1  0
 19 65  1  0
 20 66  1  0
 20 67  1  0
 21 22  1  0
 21 31  1  0
 22 23  2  0
 22 32  1  0
 23 24  1  0
 24 25  2  0
 24 31  1  0
 25 26  1  0
 25 68  1  0
 26 27  1  0
 26 28  2  0
 28 29  1  0
 28 30  1  0
 30 31  2  0
 30 69  1  0
 32 33  2  0
 32 37  1  0
 33 34  1  0
 33 70  1  0
 34 35  2  0
 34 71  1  0
 35 36  1  0
 35 38  1  0
 36 37  2  0
 37 72  1  0
 38 39  1  0
 38 42  1  0
 39 40  2  0
 39 73  1  0
 40 41  1  0
 40 74  1  0
 41 42  2  0
 41 75  1  0
M  CHG  1   1  -1
M  END
> <Name>
ligand_257

> <activity>
1

$$$$
ligand_258
  SciTegic10272118463D

 54 57  0  0  1  0            999 V2000
    5.8307   -2.0376    0.7834 C   0  0
    7.1833   -2.0042    0.8740 N   0  0
    5.1414   -1.5780   -0.3819 C   0  0
    7.8659   -1.5247   -0.1940 C   0  0
    4.1775   -3.2796    7.8222 N   0  0
    5.9604   -1.0911   -1.4400 C   0  0
    7.3187   -1.0636   -1.3478 N   0  0
    9.3917   -1.4919   -0.0674 C   0  0
    3.8028   -3.2924    6.5514 C   0  0
    3.7321   -1.5734   -0.5550 C   0  0
    3.1827   -3.1782    8.6702 C   0  0
    5.3524   -0.6214   -2.6209 C   0  0
    1.6271   -3.0880    7.9137 S   0  0
    2.4206   -3.1972    6.3749 C   0  0
    5.1007   -2.5220    1.8868 N   0  0
    3.1387   -1.1014   -1.7392 C   0  0
    3.9670   -0.6224   -2.7816 C   0  0
    4.8243   -3.4035    5.4579 C   0  0
    5.4725   -3.0171    3.1505 C   0  0
    4.5324   -2.9281    4.1764 C   0  0
    9.7426   -0.6098    0.8698 F   0  0
    9.8497   -2.6938    0.2891 F   0  0
    9.9946   -1.1463   -1.2084 F   0  0
    1.7649   -1.0916   -1.9086 O   0  0
    3.5608   -0.1239   -4.0096 O   0  0
    6.0767   -3.9789    5.6951 C   0  0
    3.3815   -3.1442   10.1666 C   0  0
    7.0175   -4.0873    4.6792 C   0  0
    6.7113   -3.6105    3.4111 C   0  0
    2.1927   -0.0848   -4.3966 C   0  0
    0.8975   -1.5699   -0.8842 C   0  0
    2.1076    0.4753   -5.8193 C   0  0
   -0.5479   -1.4314   -1.3701 C   0  0
    3.1244   -1.9461    0.2541 H   0  0
    5.9828   -0.2538   -3.4183 H   0  0
    1.8533   -3.1904    5.4564 H   0  0
    4.1108   -2.3506    1.8019 H   0  0
    3.5722   -2.4739    3.9782 H   0  0
    6.3261   -4.3569    6.6760 H   0  0
    2.8643   -3.9698   10.6554 H   0  0
    4.4325   -3.2134   10.4498 H   0  0
    2.9949   -2.2211   10.5983 H   0  0
    7.9770   -4.5441    4.8717 H   0  0
    7.4511   -3.7297    2.6353 H   0  0
    1.7591   -1.0860   -4.3786 H   0  0
    1.6221    0.5573   -3.7237 H   0  0
    1.1099   -2.6170   -0.6614 H   0  0
    1.0324   -0.9921    0.0318 H   0  0
    1.0726    0.5238   -6.1584 H   0  0
    2.5227    1.4823   -5.8703 H   0  0
    2.6596   -0.1505   -6.5212 H   0  0
   -1.2497   -1.7872   -0.6156 H   0  0
   -0.7907   -0.3909   -1.5877 H   0  0
   -0.7133   -2.0104   -2.2792 H   0  0
  1  2  2  0
  1  3  1  0
  1 15  1  0
  2  4  1  0
  3  6  1  0
  3 10  2  0
  4  7  2  0
  4  8  1  0
  5  9  1  0
  5 11  2  0
  6  7  1  0
  6 12  2  0
  8 21  1  0
  8 22  1  0
  8 23  1  0
  9 14  2  0
  9 18  1  0
 10 16  1  0
 10 34  1  0
 11 13  1  0
 11 27  1  0
 12 17  1  0
 12 35  1  0
 13 14  1  0
 14 36  1  0
 15 19  1  0
 15 37  1  0
 16 17  2  0
 16 24  1  0
 17 25  1  0
 18 20  1  0
 18 26  2  0
 19 20  2  0
 19 29  1  0
 20 38  1  0
 24 31  1  0
 25 30  1  0
 26 28  1  0
 26 39  1  0
 27 40  1  0
 27 41  1  0
 27 42  1  0
 28 29  2  0
 28 43  1  0
 29 44  1  0
 30 32  1  0
 30 45  1  0
 30 46  1  0
 31 33  1  0
 31 47  1  0
 31 48  1  0
 32 49  1  0
 32 50  1  0
 32 51  1  0
 33 52  1  0
 33 53  1  0
 33 54  1  0
M  END
> <Name>
ligand_258

> <activity>
1

$$$$
ligand_259
  SciTegic10272118463D

 53 54  0  0  1  0            999 V2000
   -3.0855   -0.5978    0.1472 C   0  0
   -3.7942   -1.7603    0.4798 C   0  0
   -3.7848    0.4735   -0.4270 C   0  0
   -1.7270   -0.5744    0.4111 O   0  0
   -5.1702   -1.8343    0.2457 C   0  0
   -3.0849   -2.9564    1.1087 C   0  0
   -5.1566    0.3980   -0.6637 C   0  0
   -0.9656    0.5904    0.1067 C   0  0
   -5.8785   -0.7658   -0.3276 C   0  0
   -2.9596   -2.8329    2.6337 C   0  0
   -5.7540    1.4969   -1.2288 O   0  0
    0.4942    0.3406    0.5120 C   0  0
   -7.3629   -0.8829   -0.5661 C   0  0
    1.4116    1.5435    0.2285 C   0  0
   -8.0668   -2.1812   -0.1654 C   0  0
   -8.0505    0.0080   -1.0661 O   0  0
    2.8743    1.2898    0.6343 C   0  0
    3.7937    2.4997    0.3489 C   0  0
    5.3081    2.3026    0.6744 C   0  0
    5.8913    1.1122   -0.1289 C   0  0
    6.0640    3.5984    0.2815 C   0  0
    5.4826    2.1274    2.2109 C   0  0
    6.4690    0.0616    0.4173 N   0  0
    5.8496    1.0585   -1.4450 N   0  5
    6.8333   -0.7498   -0.6303 N   0  0
    6.4481   -0.1300   -1.7884 N   0  0
   -3.2734    1.3844   -0.6980 H   0  0
   -5.6752   -2.7480    0.5240 H   0  0
   -3.6182   -3.8743    0.8564 H   0  0
   -2.0960   -3.0723    0.6625 H   0  0
   -1.0221    0.8089   -0.9614 H   0  0
   -1.3593    1.4508    0.6512 H   0  0
   -2.4526   -3.7019    3.0538 H   0  0
   -2.3857   -1.9487    2.9134 H   0  0
   -3.9394   -2.7600    3.1071 H   0  0
   -6.6974    1.3571   -1.3555 H   0  0
    0.5338    0.0944    1.5742 H   0  0
    0.8685   -0.5359   -0.0193 H   0  0
    1.3691    1.7883   -0.8341 H   0  0
    1.0356    2.4195    0.7596 H   0  0
   -9.1325   -2.1300   -0.3900 H   0  0
   -7.6432   -3.0262   -0.7082 H   0  0
   -7.9509   -2.3621    0.9032 H   0  0
    2.9088    1.0400    1.6948 H   0  0
    3.2431    0.4121    0.1017 H   0  0
    3.6883    2.7667   -0.7044 H   0  0
    3.4148    3.3623    0.9000 H   0  0
    7.1332    3.5124    0.4810 H   0  0
    5.9521    3.8285   -0.7791 H   0  0
    5.6984    4.4636    0.8364 H   0  0
    6.5362    2.0782    2.4903 H   0  0
    5.0421    2.9581    2.7640 H   0  0
    5.0157    1.2124    2.5761 H   0  0
  1  2  2  0
  1  3  1  0
  1  4  1  0
  2  5  1  0
  2  6  1  0
  3  7  2  0
  3 27  1  0
  4  8  1  0
  5  9  2  0
  5 28  1  0
  6 10  1  0
  6 29  1  0
  6 30  1  0
  7 11  1  0
  7  9  1  0
  8 12  1  0
  8 31  1  0
  8 32  1  0
  9 13  1  0
 10 33  1  0
 10 34  1  0
 10 35  1  0
 11 36  1  0
 12 14  1  0
 12 37  1  0
 12 38  1  0
 13 15  1  0
 13 16  2  0
 14 17  1  0
 14 39  1  0
 14 40  1  0
 15 41  1  0
 15 42  1  0
 15 43  1  0
 17 18  1  0
 17 44  1  0
 17 45  1  0
 18 19  1  0
 18 46  1  0
 18 47  1  0
 19 21  1  0
 19 22  1  0
 19 20  1  0
 20 23  2  0
 20 24  1  0
 21 48  1  0
 21 49  1  0
 21 50  1  0
 22 51  1  0
 22 52  1  0
 22 53  1  0
 23 25  1  0
 24 26  1  0
 25 26  2  0
M  CHG  1  24  -1
M  END
> <Name>
ligand_259

> <activity>
1

$$$$
ligand_260
  SciTegic10272118463D

 57 61  0  0  1  0            999 V2000
   -3.3252    5.7529    3.0310 O   0  5
   -2.2652    5.1674    3.3519 C   0  0
   -1.9180    4.9464    4.5351 O   0  0
   -1.3555    4.7017    2.2509 C   0  0
   -1.6890    4.9219    0.9052 C   0  0
   -0.8469    4.4896   -0.1156 C   0  0
    0.3379    3.8218    0.1934 C   0  0
    1.2691    3.3625   -0.9203 C   0  0
    1.3422    1.9017   -1.0607 N   0  0
    2.4263    1.2078   -0.6306 C   0  0
    3.4523    1.6591   -0.1165 O   0  0
    2.1374   -0.2893   -0.9003 C   0  0
    2.1765   -1.1046    0.4258 C   0  0
    3.6016   -1.3497    0.9668 C   0  0
    4.5204   -1.8868   -0.0709 N   0  0
    4.5604   -1.1135   -1.3398 C   0  0
    3.1537   -0.8689   -1.9269 C   0  0
    6.0895   -2.4624    0.5221 S   0  0
    5.8516   -3.2681    1.7261 O   0  0
    6.8243   -3.0293   -0.6154 O   0  0
    6.9608   -0.9807    1.0356 C   0  0
    6.8200   -0.5017    2.3359 C   0  0
    7.4756    0.6594    2.7258 C   0  0
    8.2709    1.3475    1.8183 C   0  0
    8.4099    0.8754    0.5193 C   0  0
    7.7551   -0.2854    0.1271 C   0  0
    0.7482   -0.2497   -1.4721 C   0  0
   -0.1019   -1.2681   -1.9030 C   0  0
   -1.3654   -0.9397   -2.3952 C   0  0
   -2.5330   -2.3220   -2.9853 Br  0  0
   -1.7826    0.3905   -2.4599 C   0  0
   -0.9308    1.4056   -2.0300 C   0  0
    0.3307    1.0663   -1.5378 C   0  0
    0.6892    3.6080    1.5265 C   0  0
   -0.1532    4.0403    2.5469 C   0  0
   -2.6037    5.4322    0.6379 H   0  0
   -1.1205    4.6747   -1.1440 H   0  0
    2.2548    3.7858   -0.7184 H   0  0
    0.9415    3.7883   -1.8694 H   0  0
    1.5663   -0.6303    1.1972 H   0  0
    1.7133   -2.0781    0.2564 H   0  0
    4.0379   -0.4278    1.3522 H   0  0
    3.5729   -2.0530    1.7996 H   0  0
    5.0700   -0.1707   -1.1386 H   0  0
    5.1784   -1.6563   -2.0555 H   0  0
    2.7763   -1.8235   -2.2976 H   0  0
    3.2289   -0.2310   -2.8099 H   0  0
    6.1988   -1.0259    3.0475 H   0  0
    7.3648    1.0286    3.7349 H   0  0
    8.7792    2.2509    2.1221 H   0  0
    9.0255    1.4126   -0.1872 H   0  0
    7.8647   -0.6404   -0.8873 H   0  0
    0.2034   -2.3032   -1.8600 H   0  0
   -2.7627    0.6341   -2.8430 H   0  0
   -1.2583    2.4325   -2.0860 H   0  0
    1.6119    3.1029    1.7737 H   0  0
    0.1404    3.8562    3.5708 H   0  0
  1  2  1  0
  2  3  2  0
  2  4  1  0
  4  5  2  0
  4 35  1  0
  5  6  1  0
  5 36  1  0
  6  7  2  0
  6 37  1  0
  7  8  1  0
  7 34  1  0
  8  9  1  0
  8 38  1  0
  8 39  1  0
  9 10  1  0
  9 33  1  0
 10 11  2  0
 10 12  1  0
 12 13  1  0
 12 17  1  0
 12 27  1  0
 13 14  1  0
 13 40  1  0
 13 41  1  0
 14 15  1  0
 14 42  1  0
 14 43  1  0
 15 16  1  0
 15 18  1  0
 16 17  1  0
 16 44  1  0
 16 45  1  0
 17 46  1  0
 17 47  1  0
 18 19  2  0
 18 20  2  0
 18 21  1  0
 21 22  2  0
 21 26  1  0
 22 23  1  0
 22 48  1  0
 23 24  2  0
 23 49  1  0
 24 25  1  0
 24 50  1  0
 25 26  2  0
 25 51  1  0
 26 52  1  0
 27 28  2  0
 27 33  1  0
 28 29  1  0
 28 53  1  0
 29 30  1  0
 29 31  2  0
 31 32  1  0
 31 54  1  0
 32 33  2  0
 32 55  1  0
 34 35  2  0
 34 56  1  0
 35 57  1  0
M  CHG  1   1  -1
M  END
> <Name>
ligand_260

> <activity>
1

$$$$
ligand_261
  SciTegic10272118463D

 53 57  0  0  1  0            999 V2000
    1.5855    2.0710   -0.5039 O   0  0
    0.7714    1.2509   -0.0755 C   0  0
   -0.4905    1.5261    0.3238 N   0  0
   -1.1737    2.7537    0.3089 C   0  0
   -2.5648    2.6900    0.3409 C   0  0
   -3.3235    3.8537    0.3386 C   0  0
   -2.6972    5.0923    0.3129 C   0  0
   -1.3109    5.1672    0.2940 C   0  0
   -0.5485    4.0055    0.2952 C   0  0
    1.1274   -0.1335    0.1109 N   0  0
    2.4074   -0.5866    0.4104 C   0  0
    3.6631    0.2730    0.5569 C   0  0
    4.7772   -0.5257    1.1365 N   0  0
    4.9118   -1.9134    0.6214 C   0  0
    3.6521   -2.7654    0.9053 C   0  0
    2.3989   -1.9719    0.5588 C   0  0
    1.0854   -2.3701    0.3385 C   0  0
    0.3033   -1.2614    0.0468 C   0  0
   -1.1503   -1.2847   -0.2994 C   0  0
   -2.0676   -1.8270    0.5974 C   0  0
   -3.4219   -1.8485    0.2880 C   0  0
   -3.8669   -1.3352   -0.9234 C   0  0
   -2.9564   -0.8052   -1.8281 C   0  0
   -1.6021   -0.7846   -1.5196 C   0  0
    6.2733    0.3534    1.4997 S   0  0
    5.9343    1.6597    2.0764 O   0  0
    7.2170   -0.5593    2.1555 O   0  0
    6.9023    0.6602   -0.1687 C   0  0
    6.6346    1.7863   -0.9383 C   0  0
    7.2436    1.7343   -2.1967 C   0  0
    7.9719    0.5677   -2.3894 C   0  0
    7.9071   -0.4805   -1.0084 S   0  0
   -1.0547    0.7327    0.5914 H   0  0
   -3.0699    1.7342    0.3606 H   0  0
   -4.4019    3.7946    0.3576 H   0  0
   -3.2875    5.9969    0.3124 H   0  0
   -0.8234    6.1309    0.2827 H   0  0
    0.5261    4.1022    0.2990 H   0  0
    3.9820    0.6204   -0.4261 H   0  0
    3.5102    1.1545    1.1803 H   0  0
    5.1150   -1.8475   -0.4485 H   0  0
    5.7831   -2.3807    1.0809 H   0  0
    3.7039   -3.7047    0.3542 H   0  0
    3.6296   -3.0370    1.9613 H   0  0
    0.7323   -3.3904    0.3722 H   0  0
   -1.7325   -2.2274    1.5436 H   0  0
   -4.1292   -2.2649    0.9901 H   0  0
   -4.9200   -1.3518   -1.1633 H   0  0
   -3.3009   -0.4096   -2.7723 H   0  0
   -0.9015   -0.3702   -2.2304 H   0  0
    6.0222    2.6102   -0.6016 H   0  0
    7.1554    2.5151   -2.9377 H   0  0
    8.5333    0.2786   -3.2656 H   0  0
  1  2  2  0
  2  3  1  0
  2 10  1  0
  3  4  1  0
  3 33  1  0
  4  5  2  0
  4  9  1  0
  5  6  1  0
  5 34  1  0
  6  7  2  0
  6 35  1  0
  7  8  1  0
  7 36  1  0
  8  9  2  0
  8 37  1  0
  9 38  1  0
 10 11  1  0
 10 18  1  0
 11 12  1  0
 11 16  2  0
 12 13  1  0
 12 39  1  0
 12 40  1  0
 13 14  1  0
 13 25  1  0
 14 15  1  0
 14 41  1  0
 14 42  1  0
 15 16  1  0
 15 43  1  0
 15 44  1  0
 16 17  1  0
 17 18  2  0
 17 45  1  0
 18 19  1  0
 19 20  2  0
 19 24  1  0
 20 21  1  0
 20 46  1  0
 21 22  2  0
 21 47  1  0
 22 23  1  0
 22 48  1  0
 23 24  2  0
 23 49  1  0
 24 50  1  0
 25 26  2  0
 25 27  2  0
 25 28  1  0
 28 29  2  0
 28 32  1  0
 29 30  1  0
 29 51  1  0
 30 31  2  0
 30 52  1  0
 31 32  1  0
 31 53  1  0
M  END
> <Name>
ligand_261

> <activity>
1

$$$$
ligand_262
  SciTegic10272118463D

 62 66  0  0  1  0            999 V2000
    4.6524   -7.7263    4.5376 O   0  5
    4.4297   -7.8864    3.3152 C   0  0
    4.8096   -8.8838    2.6592 O   0  0
    3.6606   -6.8176    2.5924 C   0  0
    3.2045   -5.6788    3.2732 C   0  0
    2.4917   -4.6879    2.6039 C   0  0
    2.2282   -4.8104    1.2396 C   0  0
    1.4911   -3.7659    0.6539 N   0  0
    1.3806   -3.4252   -0.6488 C   0  0
    1.9727   -3.9872   -1.5715 O   0  0
    0.4766   -2.2029   -0.9417 C   0  0  2  0  0  0
   -0.1510   -2.1583   -2.3806 C   0  0
   -1.0149   -3.4147   -2.6960 C   0  0
   -1.6460   -3.3729   -4.1017 C   0  0
   -2.4668   -2.0909   -4.3227 C   0  0
   -1.6297   -0.8333   -4.0344 C   0  0
   -0.9954   -0.8741   -2.6303 C   0  0
    1.1659   -0.9356   -0.6158 N   0  0
    0.7696    0.0166    0.3165 C   0  0
    1.5474    1.0708    0.3465 N   0  0
    2.5124    0.8257   -0.5871 C   0  0
    3.5976    1.6309   -0.9578 C   0  0
    4.4522    1.1675   -1.9577 C   0  0
    5.5053    1.9299   -2.3310 F   0  0
    4.2372   -0.0650   -2.5782 C   0  0
    5.0882   -0.4769   -3.5455 F   0  0
    3.1640   -0.8883   -2.2285 C   0  0
    2.3072   -0.4247   -1.2207 C   0  0
   -0.4289   -0.0972    1.1953 C   0  0
   -0.5070   -1.1002    2.1625 C   0  0
   -1.6332   -1.2004    2.9745 C   0  0
   -2.6977   -0.2959    2.8373 C   0  0
   -2.6014    0.7150    1.8682 C   0  0
   -1.4751    0.8155    1.0563 C   0  0
   -3.9141   -0.4056    3.7117 C   0  0
   -3.9473   -1.3266    4.5601 O   0  5
   -4.8340    0.4287    3.5471 O   0  0
    2.6671   -5.9496    0.5507 C   0  0
    3.3792   -6.9392    1.2233 C   0  0
    3.3973   -5.5510    4.3292 H   0  0
    2.1521   -3.8224    3.1552 H   0  0
    1.0113   -3.1740    1.3144 H   0  0
   -0.3695   -2.2925   -0.2604 H   0  0
    0.6659   -2.1427   -3.1044 H   0  0
   -0.4223   -4.3258   -2.6145 H   0  0
   -1.8078   -3.5063   -1.9518 H   0  0
   -0.8579   -3.4339   -4.8538 H   0  0
   -2.2781   -4.2489   -4.2521 H   0  0
   -2.8467   -2.0614   -5.3446 H   0  0
   -3.3422   -2.1025   -3.6714 H   0  0
   -0.8419   -0.7425   -4.7840 H   0  0
   -2.2504    0.0577   -4.1366 H   0  0
   -1.7827   -0.8043   -1.8776 H   0  0
   -0.3835    0.0202   -2.5086 H   0  0
    3.7694    2.5868   -0.4859 H   0  0
    3.0160   -1.8375   -2.7210 H   0  0
    0.3050   -1.7996    2.2926 H   0  0
   -1.6678   -1.9883    3.7140 H   0  0
   -3.3989    1.4325    1.7350 H   0  0
   -1.4201    1.5998    0.3150 H   0  0
    2.4579   -6.0979   -0.4971 H   0  0
    3.7062   -7.8060    0.6663 H   0  0
  1  2  1  0
  2  3  2  0
  2  4  1  0
  4  5  2  0
  4 39  1  0
  5  6  1  0
  5 40  1  0
  6  7  2  0
  6 41  1  0
  7  8  1  0
  7 38  1  0
  8  9  1  0
  8 42  1  0
  9 10  2  0
  9 11  1  0
 11 12  1  0
 11 18  1  0
 11 43  1  0
 12 13  1  0
 12 17  1  0
 12 44  1  0
 13 14  1  0
 13 45  1  0
 13 46  1  0
 14 15  1  0
 14 47  1  0
 14 48  1  0
 15 16  1  0
 15 49  1  0
 15 50  1  0
 16 17  1  0
 16 51  1  0
 16 52  1  0
 17 53  1  0
 17 54  1  0
 18 19  1  0
 18 28  1  0
 19 20  2  0
 19 29  1  0
 20 21  1  0
 21 22  2  0
 21 28  1  0
 22 23  1  0
 22 55  1  0
 23 24  1  0
 23 25  2  0
 25 26  1  0
 25 27  1  0
 27 28  2  0
 27 56  1  0
 29 30  2  0
 29 34  1  0
 30 31  1  0
 30 57  1  0
 31 32  2  0
 31 58  1  0
 32 33  1  0
 32 35  1  0
 33 34  2  0
 33 59  1  0
 34 60  1  0
 35 36  1  0
 35 37  2  0
 38 39  2  0
 38 61  1  0
 39 62  1  0
M  CHG  2   1  -1  36  -1
M  END
> <Name>
ligand_262

> <activity>
1

$$$$
ligand_263
  SciTegic10272118463D

 66 67  0  0  1  0            999 V2000
    0.2303    9.2653    1.5038 C   0  0
   -0.9271    8.4613    1.6858 O   0  0
   -0.9638    7.1348    1.2865 C   0  0
   -2.1821    6.5036    1.5491 C   0  0
   -2.3948    5.1706    1.2150 C   0  0
   -1.3833    4.4311    0.6078 C   0  0
   -0.1594    5.0500    0.3340 C   0  0
    0.0754    6.3988    0.6638 C   0  0
    1.2845    7.0174    0.3954 O   0  0
    2.3391    6.2978   -0.2359 C   0  0
   -1.6225    3.0866    0.2711 N   0  0
   -0.6098    2.1237    0.6720 C   0  0
   -1.1759    0.7174    0.9300 C   0  0
   -2.1726    0.5694    1.6384 O   0  0
   -0.5189   -0.3142    0.3709 N   0  0
   -0.8887   -1.7330    0.4953 C   0  0
   -0.4027   -2.5235   -0.7685 C   0  0
   -0.7407   -4.0285   -0.7552 C   0  0
   -0.9233   -1.9078   -2.0886 C   0  0
   -0.4468   -2.2914    1.8935 C   0  0
   -1.3359   -3.4304    2.4362 C   0  0
    1.0568   -2.6189    1.9965 C   0  0
   -2.5218    2.8035   -1.2610 S   0  0
   -3.2003    4.0535   -1.6255 O   0  0
   -1.5893    2.1588   -2.1942 O   0  0
   -3.8140    1.6260   -0.8709 C   0  0
   -4.7787    1.9631    0.0797 C   0  0
   -5.7703    1.0450    0.4141 C   0  0
   -5.7992   -0.2061   -0.2059 C   0  0
   -6.8730   -1.2116    0.1676 C   0  0
   -4.8377   -0.5388   -1.1622 C   0  0
   -3.8471    0.3792   -1.4987 C   0  0
    0.0313   10.2635    1.8933 H   0  0
    1.0864    8.8702    2.0522 H   0  0
    0.4828    9.3758    0.4484 H   0  0
   -2.9797    7.0589    2.0210 H   0  0
   -3.3501    4.7149    1.4314 H   0  0
    0.6057    4.4625   -0.1491 H   0  0
    2.0491    5.9495   -1.2283 H   0  0
    3.1984    6.9570   -0.3583 H   0  0
    2.6614    5.4473    0.3667 H   0  0
    0.1897    2.0532   -0.0680 H   0  0
   -0.1174    2.3950    1.6078 H   0  0
    0.3021   -0.1188   -0.1832 H   0  0
   -1.9812   -1.7727    0.4646 H   0  0
    0.6851   -2.4449   -0.8081 H   0  0
   -0.4969   -4.4994   -1.7084 H   0  0
   -0.1676   -4.5675   -0.0034 H   0  0
   -1.8016   -4.1995   -0.5685 H   0  0
   -0.5185   -2.4301   -2.9564 H   0  0
   -2.0100   -1.9699   -2.1490 H   0  0
   -0.6432   -0.8597   -2.1970 H   0  0
   -0.6114   -1.4896    2.6158 H   0  0
   -1.1064   -3.6333    3.4830 H   0  0
   -2.3923   -3.1637    2.3884 H   0  0
   -1.2080   -4.3684    1.9017 H   0  0
    1.3358   -2.8630    3.0222 H   0  0
    1.3358   -3.4686    1.3744 H   0  0
    1.6672   -1.7692    1.6892 H   0  0
   -4.7535    2.9273    0.5655 H   0  0
   -6.5102    1.3056    1.1569 H   0  0
   -6.5239   -1.8463    0.9824 H   0  0
   -7.7873   -0.7126    0.4912 H   0  0
   -7.1266   -1.8509   -0.6789 H   0  0
   -4.8545   -1.5059   -1.6433 H   0  0
   -3.1069    0.1171   -2.2393 H   0  0
  1  2  1  0
  1 33  1  0
  1 34  1  0
  1 35  1  0
  2  3  1  0
  3  4  2  0
  3  8  1  0
  4  5  1  0
  4 36  1  0
  5  6  2  0
  5 37  1  0
  6  7  1  0
  6 11  1  0
  7  8  2  0
  7 38  1  0
  8  9  1  0
  9 10  1  0
 10 39  1  0
 10 40  1  0
 10 41  1  0
 11 12  1  0
 11 23  1  0
 12 13  1  0
 12 42  1  0
 12 43  1  0
 13 14  2  0
 13 15  1  0
 15 16  1  0
 15 44  1  0
 16 17  1  0
 16 20  1  0
 16 45  1  0
 17 18  1  0
 17 19  1  0
 17 46  1  0
 18 47  1  0
 18 48  1  0
 18 49  1  0
 19 50  1  0
 19 51  1  0
 19 52  1  0
 20 21  1  0
 20 22  1  0
 20 53  1  0
 21 54  1  0
 21 55  1  0
 21 56  1  0
 22 57  1  0
 22 58  1  0
 22 59  1  0
 23 24  2  0
 23 25  2  0
 23 26  1  0
 26 27  2  0
 26 32  1  0
 27 28  1  0
 27 60  1  0
 28 29  2  0
 28 61  1  0
 29 30  1  0
 29 31  1  0
 30 62  1  0
 30 63  1  0
 30 64  1  0
 31 32  2  0
 31 65  1  0
 32 66  1  0
M  END
> <Name>
ligand_263

> <activity>
1

$$$$
ligand_264
  SciTegic10272118463D

 62 66  0  0  1  0            999 V2000
   -3.7226    8.4819    0.4580 C   0  0
   -3.0028    7.2144    0.6080 N   0  0
   -2.0940    7.2043    1.7588 C   0  0
   -3.2540    6.1511   -0.2040 C   0  0
   -4.1492    6.1561   -1.0523 O   0  0
   -2.3967    4.9142   -0.0810 C   0  0
   -3.0049    3.6652    0.0797 C   0  0
   -2.2280    2.5140    0.1740 C   0  0
   -0.8370    2.5957    0.0897 C   0  0
   -0.1378    1.3822    0.2057 N   0  0
    1.1120    1.0773   -0.2083 C   0  0
    1.8944    1.8582   -0.7510 O   0  0
    1.5104   -0.2888    0.0601 C   0  0
    2.7997   -0.7608    0.3048 C   0  0
    4.1506   -0.0635    0.4129 C   0  0
    5.1621   -0.9617    1.0338 N   0  0
    5.1531   -2.3692    0.5563 C   0  0
    3.8064   -3.0775    0.8344 C   0  0
    2.6543   -2.1481    0.4788 C   0  0
    1.4148   -2.5391    0.3199 N   0  0
    0.7152   -1.4299    0.0315 N   0  0
   -0.6579   -1.5742   -0.2750 C   0  0
   -1.5136   -2.2165    0.6205 C   0  0
   -2.8643   -2.3455    0.3218 C   0  0
   -3.3653   -1.8395   -0.8709 C   0  0
   -2.5155   -1.2077   -1.7698 C   0  0
   -1.1640   -1.0778   -1.4765 C   0  0
    6.7358   -0.2406    1.4161 S   0  0
    6.5276    1.1082    1.9557 O   0  0
    7.5596   -1.2341    2.1147 O   0  0
    7.4317   -0.0444   -0.2422 C   0  0
    7.3157    1.0894   -1.0380 C   0  0
    7.9411    0.9401   -2.2804 C   0  0
    8.5302   -0.3079   -2.4350 C   0  0
    8.3124   -1.3125   -1.0374 S   0  0
   -0.2228    3.8457   -0.0749 C   0  0
   -1.0015    4.9960   -0.1683 C   0  0
   -4.2827    8.5467   -0.4762 H   0  0
   -4.4258    8.6151    1.2807 H   0  0
   -3.0223    9.3179    0.4743 H   0  0
   -1.7735    6.2035    2.0478 H   0  0
   -1.2062    7.7993    1.5425 H   0  0
   -2.5844    7.6395    2.6305 H   0  0
   -4.0812    3.5798    0.1363 H   0  0
   -2.7170    1.5585    0.3030 H   0  0
   -0.6760    0.6247    0.5995 H   0  0
    4.5052    0.2013   -0.5836 H   0  0
    4.1014    0.8625    0.9863 H   0  0
    5.3790   -2.3525   -0.5109 H   0  0
    5.9627   -2.9153    1.0411 H   0  0
    3.7615   -4.0183    0.2849 H   0  0
    3.7478   -3.3393    1.8915 H   0  0
   -1.1357   -2.6116    1.5529 H   0  0
   -3.5258   -2.8396    1.0183 H   0  0
   -4.4159   -1.9403   -1.1011 H   0  0
   -2.9056   -0.8179   -2.6986 H   0  0
   -0.5132   -0.5858   -2.1856 H   0  0
    6.7984    1.9866   -0.7305 H   0  0
    7.9621    1.7106   -3.0371 H   0  0
    9.0722   -0.6790   -3.2923 H   0  0
    0.8499    3.9507   -0.1225 H   0  0
   -0.5121    5.9498   -0.3071 H   0  0
  1  2  1  0
  1 38  1  0
  1 39  1  0
  1 40  1  0
  2  3  1  0
  2  4  1  0
  3 41  1  0
  3 42  1  0
  3 43  1  0
  4  5  2  0
  4  6  1  0
  6  7  2  0
  6 37  1  0
  7  8  1  0
  7 44  1  0
  8  9  2  0
  8 45  1  0
  9 10  1  0
  9 36  1  0
 10 11  1  0
 10 46  1  0
 11 12  2  0
 11 13  1  0
 13 14  2  0
 13 21  1  0
 14 15  1  0
 14 19  1  0
 15 16  1  0
 15 47  1  0
 15 48  1  0
 16 17  1  0
 16 28  1  0
 17 18  1  0
 17 49  1  0
 17 50  1  0
 18 19  1  0
 18 51  1  0
 18 52  1  0
 19 20  2  0
 20 21  1  0
 21 22  1  0
 22 23  2  0
 22 27  1  0
 23 24  1  0
 23 53  1  0
 24 25  2  0
 24 54  1  0
 25 26  1  0
 25 55  1  0
 26 27  2  0
 26 56  1  0
 27 57  1  0
 28 29  2  0
 28 30  2  0
 28 31  1  0
 31 32  2  0
 31 35  1  0
 32 33  1  0
 32 58  1  0
 33 34  2  0
 33 59  1  0
 34 35  1  0
 34 60  1  0
 36 37  2  0
 36 61  1  0
 37 62  1  0
M  END
> <Name>
ligand_264

> <activity>
1

$$$$
ligand_265
  SciTegic10272118463D

 72 76  0  0  1  0            999 V2000
   -6.2752   -4.8611    0.8572 C   0  0
   -6.4105   -4.1397   -0.4913 C   0  0
   -7.6484   -4.5655   -1.3341 C   0  0
   -6.3001   -6.3940    0.6982 C   0  0
   -7.5479   -6.9552   -0.0601 C   0  0  1  0  0  0
   -7.6955   -6.1443   -1.4121 C   0  0  1  0  0  0
   -8.8154   -6.7279   -2.3125 C   0  0
   -8.5744   -8.2150   -2.6407 C   0  0
   -7.3094   -8.4785   -0.4452 C   0  0  2  0  0  0
   -8.3725   -9.1476   -1.4042 C   0  0  2  0  0  0
   -6.3400  -10.7714    0.2246 C   0  0  2  0  0  0
   -6.9292   -9.4294    0.7244 C   0  0
   -7.2558  -11.5408   -0.7876 C   0  0  1  0  0  0
   -7.7761  -10.5318   -1.9011 C   0  0  1  0  0  0
   -8.5938  -11.2261   -3.0519 C   0  0
   -8.1252  -12.6460   -3.3437 C   0  0
   -6.3602  -12.5790   -1.5647 C   0  0  2  0  0  0
   -7.1476  -13.2544   -2.6467 C   0  0
   -6.7521  -14.6283   -2.7875 C   0  0
   -5.9209  -14.8937   -1.7605 O   0  0
   -5.8019  -13.8250   -0.8631 C   0  0  1  0  0  0
   -5.9681  -11.6034    1.3313 O   0  0
   -8.4478  -12.1952   -0.0219 C   0  0
   -9.7664   -9.3402   -0.7224 C   0  0
   -8.7780   -6.8198    0.8905 C   0  0
   -7.4151   -3.9779   -2.7534 C   0  0
   -8.9349   -3.9584   -0.7189 C   0  0
   -7.1241  -15.4487   -3.6253 O   0  0
   -4.4977  -13.5780   -0.5141 O   0  0
   -4.8344  -11.3970    2.0415 C   0  0
   -4.6706  -12.4066    3.1689 C   0  0
   -3.9958  -10.5182    1.8406 O   0  0
   -5.3392   -4.5638    1.3321 H   0  0
   -7.0575   -4.5280    1.5378 H   0  0
   -6.4177   -3.0613   -0.3233 H   0  0
   -5.4978   -4.3364   -1.0578 H   0  0
   -5.3889   -6.6957    0.1787 H   0  0
   -6.2277   -6.8271    1.6961 H   0  0
   -6.7805   -6.3820   -1.9608 H   0  0
   -9.7941   -6.5852   -1.8581 H   0  0
   -8.8667   -6.1969   -3.2613 H   0  0
   -9.4035   -8.5714   -3.2539 H   0  0
   -7.6955   -8.2691   -3.2859 H   0  0
   -6.3919   -8.4414   -1.0379 H   0  0
   -5.4136  -10.5336   -0.3034 H   0  0
   -6.1767   -8.9606    1.3540 H   0  0
   -7.7734   -9.6163    1.3849 H   0  0
   -6.8599  -10.2332   -2.4174 H   0  0
   -9.6533  -11.2881   -2.8140 H   0  0
   -8.5266  -10.6467   -3.9731 H   0  0
   -8.6568  -13.2043   -4.1025 H   0  0
   -5.5295  -12.0541   -2.0466 H   0  0
   -6.3700  -14.0990    0.0259 H   0  0
   -9.1967  -12.6089   -0.6966 H   0  0
   -8.1182  -13.0149    0.6144 H   0  0
   -8.9574  -11.5056    0.6439 H   0  0
   -9.7024   -9.5087    0.3489 H   0  0
  -10.4188   -8.4784   -0.8431 H   0  0
  -10.3313  -10.1736   -1.1324 H   0  0
   -9.7275   -6.7919    0.3633 H   0  0
   -8.8304   -7.6366    1.6082 H   0  0
   -8.7516   -5.9241    1.5046 H   0  0
   -7.2126   -2.9066   -2.7105 H   0  0
   -6.5681   -4.4433   -3.2595 H   0  0
   -8.2870   -4.0934   -3.3965 H   0  0
   -8.9247   -2.8706   -0.7989 H   0  0
   -9.8310   -4.3009   -1.2361 H   0  0
   -9.0600   -4.1762    0.3368 H   0  0
   -4.2290  -14.2486    0.1178 H   0  0
   -3.7447  -12.2253    3.7150 H   0  0
   -5.5038  -12.3307    3.8674 H   0  0
   -4.6424  -13.4196    2.7680 H   0  0
  1  2  1  0
  1  4  1  0
  1 33  1  0
  1 34  1  0
  2  3  1  0
  2 35  1  0
  2 36  1  0
  3  6  1  0
  3 26  1  0
  3 27  1  0
  4  5  1  0
  4 37  1  0
  4 38  1  0
  5  6  1  0
  5  9  1  0
  5 25  1  0
  6  7  1  0
  6 39  1  0
  7  8  1  0
  7 40  1  0
  7 41  1  0
  8 10  1  0
  8 42  1  0
  8 43  1  0
  9 10  1  0
  9 12  1  0
  9 44  1  0
 10 14  1  0
 10 24  1  0
 11 12  1  0
 11 13  1  0
 11 22  1  0
 11 45  1  0
 12 46  1  0
 12 47  1  0
 13 14  1  0
 13 17  1  0
 13 23  1  0
 14 15  1  0
 14 48  1  0
 15 16  1  0
 15 49  1  0
 15 50  1  0
 16 18  2  0
 16 51  1  0
 17 18  1  0
 17 21  1  0
 17 52  1  0
 18 19  1  0
 19 20  1  0
 19 28  2  0
 20 21  1  0
 21 29  1  0
 21 53  1  0
 22 30  1  0
 23 54  1  0
 23 55  1  0
 23 56  1  0
 24 57  1  0
 24 58  1  0
 24 59  1  0
 25 60  1  0
 25 61  1  0
 25 62  1  0
 26 63  1  0
 26 64  1  0
 26 65  1  0
 27 66  1  0
 27 67  1  0
 27 68  1  0
 29 69  1  0
 30 31  1  0
 30 32  2  0
 31 70  1  0
 31 71  1  0
 31 72  1  0
M  END
> <Name>
ligand_265

> <activity>
1

$$$$
ligand_266
  SciTegic10272118463D

 56 60  0  0  1  0            999 V2000
   -2.5771    7.5058    1.0732 N   0  0
   -3.0792    6.4673    0.3987 C   0  0
   -4.1510    6.5466   -0.1988 O   0  0
   -2.2872    5.1821    0.4330 C   0  0
   -2.9549    3.9553    0.3343 C   0  0
   -2.2424    2.7598    0.3593 C   0  0
   -0.8516    2.7726    0.4705 C   0  0
   -0.2204    1.5174    0.4969 N   0  0
    1.0612    1.2040    0.2041 C   0  0
    1.9366    2.0085   -0.1165 O   0  0
    1.3689   -0.2065    0.3189 C   0  0
    2.5924   -0.7814    0.6632 C   0  0
    3.9373   -0.1866    1.0636 C   0  0
    5.0007   -1.2263    1.0379 N   0  0
    4.6370   -2.5366    1.6350 C   0  0
    3.4481   -3.2057    0.9047 C   0  0
    2.3724   -2.1690    0.6092 C   0  0
    1.1534   -2.4620    0.2319 N   0  0
    0.5422   -1.2852    0.0217 N   0  0
   -0.7804   -1.3066   -0.4788 C   0  0
   -1.7744   -2.0179    0.1940 C   0  0
   -3.0753   -2.0264   -0.2936 C   0  0
   -3.3887   -1.3307   -1.4544 C   0  0
   -2.4004   -0.6290   -2.1329 C   0  0
   -1.0979   -0.6188   -1.6503 C   0  0
    6.6641   -0.6596    1.2561 S   0  0
    6.6953    0.3311    2.3385 O   0  0
    7.5734   -1.8112    1.2405 O   0  0
    6.9247    0.2268   -0.2964 C   0  0
    7.3204    1.5534   -0.4173 C   0  0
    7.4394    1.9577   -1.7514 C   0  0
    7.1399    0.9391   -2.6468 C   0  0
    6.7074   -0.5354   -1.8412 S   0  0
   -0.1753    3.9961    0.5762 C   0  0
   -0.8897    5.1909    0.5523 C   0  0
   -3.0773    8.3820    1.0857 H   0  0
   -1.7204    7.4098    1.5968 H   0  0
   -4.0314    3.9182    0.2406 H   0  0
   -2.7804    1.8252    0.2830 H   0  0
   -0.8343    0.7439    0.7046 H   0  0
    4.2404    0.6415    0.4226 H   0  0
    3.8810    0.2074    2.0789 H   0  0
    5.5032   -3.1976    1.6037 H   0  0
    4.4121   -2.3621    2.6882 H   0  0
    3.7998   -3.6373   -0.0330 H   0  0
    3.0675   -4.0373    1.4984 H   0  0
   -1.5431   -2.5605    1.0997 H   0  0
   -3.8443   -2.5745    0.2309 H   0  0
   -4.4009   -1.3382   -1.8317 H   0  0
   -2.6445   -0.0915   -3.0375 H   0  0
   -0.3379   -0.0705   -2.1889 H   0  0
    7.5120    2.2015    0.4255 H   0  0
    7.7330    2.9527   -2.0521 H   0  0
    7.1544    0.9850   -3.7258 H   0  0
    0.8967    4.0447    0.6884 H   0  0
   -0.3414    6.1193    0.6248 H   0  0
  1  2  1  0
  1 36  1  0
  1 37  1  0
  2  3  2  0
  2  4  1  0
  4  5  2  0
  4 35  1  0
  5  6  1  0
  5 38  1  0
  6  7  2  0
  6 39  1  0
  7  8  1  0
  7 34  1  0
  8  9  1  0
  8 40  1  0
  9 10  2  0
  9 11  1  0
 11 12  2  0
 11 19  1  0
 12 13  1  0
 12 17  1  0
 13 14  1  0
 13 41  1  0
 13 42  1  0
 14 15  1  0
 14 26  1  0
 15 16  1  0
 15 43  1  0
 15 44  1  0
 16 17  1  0
 16 45  1  0
 16 46  1  0
 17 18  2  0
 18 19  1  0
 19 20  1  0
 20 21  2  0
 20 25  1  0
 21 22  1  0
 21 47  1  0
 22 23  2  0
 22 48  1  0
 23 24  1  0
 23 49  1  0
 24 25  2  0
 24 50  1  0
 25 51  1  0
 26 27  2  0
 26 28  2  0
 26 29  1  0
 29 30  2  0
 29 33  1  0
 30 31  1  0
 30 52  1  0
 31 32  2  0
 31 53  1  0
 32 33  1  0
 32 54  1  0
 34 35  2  0
 34 55  1  0
 35 56  1  0
M  END
> <Name>
ligand_266

> <activity>
1

$$$$
ligand_267
  SciTegic10272118463D

 69 73  0  0  1  0            999 V2000
    3.4254   -1.7763    1.6796 C   0  0
    3.9614   -2.9060    0.7894 C   0  0
    4.3793   -2.4605   -0.6425 C   0  0
    2.2663   -1.0134    1.0090 C   0  0
    2.5907   -0.4323   -0.4069 C   0  0  1  0  0  0
    3.2097   -1.6027   -1.2743 C   0  0  1  0  0  0
    3.4325   -1.1657   -2.7439 C   0  0
    2.1204   -0.6752   -3.3976 C   0  0
    1.2513    0.0422   -1.1266 C   0  0  2  0  0  0
    1.3583    0.4852   -2.6484 C   0  0  2  0  0  0
   -1.0744    1.1574   -0.8961 C   0  0  2  0  0  0
    0.3420    0.9899   -0.2980 C   0  0
   -1.0997    1.6608   -2.3835 C   0  0  1  0  0  0
   -0.1374    0.6838   -3.2226 C   0  0  2  0  0  0
   -0.8183   -0.6943   -3.5489 C   0  0
   -2.2304   -0.5617   -4.0489 C   0  0
   -2.6143    1.6459   -2.9004 C   0  0  2  0  0  0
   -3.0098    0.4835   -3.7706 C   0  0
   -4.3486    0.8875   -4.3043 C   0  0
   -4.0586    2.2114   -4.6996 O   0  0
   -3.1459    2.7891   -3.8102 C   0  0  1  0  0  0
    3.5566    0.7744   -0.2045 C   0  0
    2.1510    1.8418   -2.8647 C   0  0
    4.5627   -3.7718   -1.4557 C   0  0
    5.7236   -1.6912   -0.5798 C   0  0
   -0.5868    3.1373   -2.3864 C   0  0
   -1.8321    1.9646   -0.0071 O   0  0
   -3.7230    3.7419   -3.0066 O   0  0
    3.4334    1.7985   -3.4632 O   0  0
    3.0801   -2.1964    2.6252 H   0  0
    4.2337   -1.0976    1.9484 H   0  0
    4.7957   -3.3969    1.2936 H   0  0
    3.1791   -3.6651    0.7223 H   0  0
    1.4113   -1.6885    0.9405 H   0  0
    1.9621   -0.2186    1.6907 H   0  0
    2.3974   -2.3306   -1.3447 H   0  0
    4.2265   -0.4267   -2.8068 H   0  0
    3.7908   -2.0010   -3.3430 H   0  0
    2.2983   -0.4037   -4.4393 H   0  0
    1.5187   -1.5796   -3.4350 H   0  0
    0.6614   -0.8747   -1.1515 H   0  0
   -1.5606    0.1807   -0.8603 H   0  0
    0.2086    0.5938    0.7074 H   0  0
    0.8181    1.9582   -0.1574 H   0  0
   -0.0340    1.1555   -4.2021 H   0  0
   -0.2944   -1.1845   -4.3684 H   0  0
   -0.8135   -1.3797   -2.7024 H   0  0
   -2.6100   -1.3184   -4.7205 H   0  0
   -3.2796    1.6019   -2.0347 H   0  0
   -4.6812    0.2935   -5.1562 H   0  0
   -5.1310    0.8665   -3.5432 H   0  0
   -2.3661    3.2216   -4.4381 H   0  0
    4.1107    1.0327   -1.1022 H   0  0
    3.0262    1.6679    0.1200 H   0  0
    4.2991    0.6099    0.5700 H   0  0
    2.2505    2.4060   -1.9407 H   0  0
    1.6217    2.4941   -3.5549 H   0  0
    5.2451   -4.4584   -0.9522 H   0  0
    3.6217   -4.3047   -1.5994 H   0  0
    4.9917   -3.5899   -2.4406 H   0  0
    6.5328   -2.3543   -0.2712 H   0  0
    6.0057   -1.2876   -1.5520 H   0  0
    5.7278   -0.8720    0.1315 H   0  0
   -0.3887    3.5005   -3.3944 H   0  0
   -1.3226    3.8112   -1.9483 H   0  0
    0.3057    3.3090   -1.7956 H   0  0
   -2.7154    2.0717   -0.3676 H   0  0
   -3.8332    4.5405   -3.5278 H   0  0
    3.7654    2.6958   -3.5443 H   0  0
  1  2  1  0
  1  4  1  0
  1 30  1  0
  1 31  1  0
  2  3  1  0
  2 32  1  0
  2 33  1  0
  3  6  1  0
  3 24  1  0
  3 25  1  0
  4  5  1  0
  4 34  1  0
  4 35  1  0
  5  6  1  0
  5  9  1  0
  5 22  1  0
  6  7  1  0
  6 36  1  0
  7  8  1  0
  7 37  1  0
  7 38  1  0
  8 10  1  0
  8 39  1  0
  8 40  1  0
  9 10  1  0
  9 12  1  0
  9 41  1  0
 10 14  1  0
 10 23  1  0
 11 12  1  0
 11 13  1  0
 11 27  1  0
 11 42  1  0
 12 43  1  0
 12 44  1  0
 13 14  1  0
 13 17  1  0
 13 26  1  0
 14 15  1  0
 14 45  1  0
 15 16  1  0
 15 46  1  0
 15 47  1  0
 16 18  2  0
 16 48  1  0
 17 18  1  0
 17 21  1  0
 17 49  1  0
 18 19  1  0
 19 20  1  0
 19 50  1  0
 19 51  1  0
 20 21  1  0
 21 28  1  0
 21 52  1  0
 22 53  1  0
 22 54  1  0
 22 55  1  0
 23 29  1  0
 23 56  1  0
 23 57  1  0
 24 58  1  0
 24 59  1  0
 24 60  1  0
 25 61  1  0
 25 62  1  0
 25 63  1  0
 26 64  1  0
 26 65  1  0
 26 66  1  0
 27 67  1  0
 28 68  1  0
 29 69  1  0
M  END
> <Name>
ligand_267

> <activity>
1

$$$$
ligand_268
  SciTegic10272118463D

 67 71  0  0  1  0            999 V2000
    4.9932   -1.8374    0.5134 C   0  0
    5.0357   -3.2508   -0.0830 C   0  0
    4.3691   -4.3249    0.8352 C   0  0
    3.5521   -1.3349    0.7537 C   0  0
    2.4739   -2.4304    1.0988 C   0  0  1  0  0  0
    3.2119   -3.6826    1.7126 C   0  0  1  0  0  0
    2.2351   -4.7100    2.3383 C   0  0
    1.2953   -4.0756    3.3822 C   0  0
    1.4672   -1.8483    2.1772 C   0  0  2  0  0  0
    0.4672   -2.8569    2.8660 C   0  0  2  0  0  0
    0.1395    0.1854    3.0032 C   0  0  2  0  0  0
    0.7502   -0.5268    1.7793 C   0  0
   -0.8556   -0.6956    3.8383 C   0  0  1  0  0  0
   -0.1897   -2.1154    4.1079 C   0  0  1  0  0  0
   -1.0381   -3.0418    5.0523 C   0  0
   -1.7969   -2.2646    6.1195 C   0  0
   -1.0247   -0.0349    5.2600 C   0  0  2  0  0  0
   -1.8080   -0.9202    6.1830 C   0  0
   -2.5901   -0.1326    7.0971 C   0  0
   -2.4969    1.1439    6.6727 O   0  0
   -1.8405    1.2512    5.4408 C   0  0  1  0  0  0
   -0.4031    1.4288    2.5969 O   0  0
   -2.2027   -0.8459    3.0652 C   0  0
   -0.6247   -3.3961    1.8838 C   0  0
    1.7222   -2.7924   -0.2166 C   0  0
    3.8465   -5.4649   -0.0784 C   0  0
    5.4672   -4.8619    1.7926 C   0  0
   -3.2696   -0.5143    8.0488 O   0  0
   -0.9853    2.3230    5.3845 O   0  0
    5.5368   -1.8402    1.4593 H   0  0
    5.5274   -1.1372   -0.1302 H   0  0
    4.5613   -3.2186   -1.0638 H   0  0
    6.0712   -3.5185   -0.3007 H   0  0
    3.6199   -0.5894    1.5474 H   0  0
    3.2325   -0.7652   -0.1209 H   0  0
    3.7225   -3.2652    2.5842 H   0  0
    1.6559   -5.2069    1.5620 H   0  0
    2.7965   -5.5058    2.8281 H   0  0
    0.6306   -4.8530    3.7616 H   0  0
    1.9036   -3.7716    4.2359 H   0  0
    2.1358   -1.5447    2.9869 H   0  0
    0.9793    0.4585    3.6452 H   0  0
    1.4539    0.1598    1.3094 H   0  0
   -0.0152   -0.6988    1.0249 H   0  0
    0.6714   -1.8729    4.7364 H   0  0
   -1.7738   -3.6211    4.4988 H   0  0
   -0.3970   -3.7680    5.5523 H   0  0
   -2.3997   -2.8293    6.8180 H   0  0
   -0.0404    0.1154    5.7142 H   0  0
   -2.6222    1.3701    4.6900 H   0  0
   -0.6267    1.9274    3.3877 H   0  0
   -2.8825   -1.5441    3.5526 H   0  0
   -2.7329    0.1017    2.9859 H   0  0
   -2.0721   -1.1818    2.0413 H   0  0
   -0.8615   -2.7023    1.0815 H   0  0
   -0.3364   -4.3210    1.3897 H   0  0
   -1.5651   -3.6294    2.3766 H   0  0
    1.1273   -3.6975   -0.1318 H   0  0
    1.0547   -1.9938   -0.5380 H   0  0
    2.3992   -2.9563   -1.0516 H   0  0
    4.6403   -5.8472   -0.7218 H   0  0
    3.4836   -6.3145    0.5004 H   0  0
    3.0351   -5.1457   -0.7300 H   0  0
    6.2885   -5.3215    1.2409 H   0  0
    5.8980   -4.0721    2.4094 H   0  0
    5.0785   -5.6246    2.4674 H   0  0
   -1.5164    3.1215    5.3316 H   0  0
  1  2  1  0
  1  4  1  0
  1 30  1  0
  1 31  1  0
  2  3  1  0
  2 32  1  0
  2 33  1  0
  3  6  1  0
  3 26  1  0
  3 27  1  0
  4  5  1  0
  4 34  1  0
  4 35  1  0
  5  6  1  0
  5  9  1  0
  5 25  1  0
  6  7  1  0
  6 36  1  0
  7  8  1  0
  7 37  1  0
  7 38  1  0
  8 10  1  0
  8 39  1  0
  8 40  1  0
  9 10  1  0
  9 12  1  0
  9 41  1  0
 10 14  1  0
 10 24  1  0
 11 12  1  0
 11 13  1  0
 11 22  1  0
 11 42  1  0
 12 43  1  0
 12 44  1  0
 13 14  1  0
 13 17  1  0
 13 23  1  0
 14 15  1  0
 14 45  1  0
 15 16  1  0
 15 46  1  0
 15 47  1  0
 16 18  2  0
 16 48  1  0
 17 18  1  0
 17 21  1  0
 17 49  1  0
 18 19  1  0
 19 20  1  0
 19 28  2  0
 20 21  1  0
 21 29  1  0
 21 50  1  0
 22 51  1  0
 23 52  1  0
 23 53  1  0
 23 54  1  0
 24 55  1  0
 24 56  1  0
 24 57  1  0
 25 58  1  0
 25 59  1  0
 25 60  1  0
 26 61  1  0
 26 62  1  0
 26 63  1  0
 27 64  1  0
 27 65  1  0
 27 66  1  0
 29 67  1  0
M  END
> <Name>
ligand_268

> <activity>
1

$$$$
ligand_269
  SciTegic10272118463D

 73 77  0  0  1  0            999 V2000
    5.7166   -9.8356    1.5693 C   0  0
    6.7277  -10.6691    0.7689 C   0  0
    7.1639  -10.0378   -0.5861 C   0  0
    4.4727   -9.4757    0.7330 C   0  0
    4.7769   -8.7503   -0.6187 C   0  0  1  0  0  0
    5.8719   -9.5988   -1.3859 C   0  0  1  0  0  0
    6.1317   -9.0467   -2.8129 C   0  0
    4.8340   -9.0181   -3.6492 C   0  0
    3.4676   -8.7214   -1.5249 C   0  0  2  0  0  0
    3.6419   -8.2180   -3.0152 C   0  0  2  0  0  0
    0.8963   -8.3587   -1.6775 C   0  0  2  0  0  0
    2.1944   -8.1347   -0.8548 C   0  0
    0.9559   -7.8215   -3.1505 C   0  0  1  0  0  0
    2.2690   -8.4519   -3.8142 C   0  0  2  0  0  0
    2.0819   -9.9651   -4.1946 C   0  0
    0.7865  -10.2405   -4.9086 C   0  0
   -0.3882   -8.2526   -3.9012 C   0  0  2  0  0  0
   -0.2929   -9.4666   -4.7867 C   0  0
   -1.5848   -9.4470   -5.5415 C   0  0
   -1.6072   -8.0902   -5.9325 O   0  0
   -1.0588   -7.2917   -4.9225 C   0  0  1  0  0  0
    5.2432   -7.3002   -0.2782 C   0  0
    4.0541   -6.7122   -3.1207 C   0  0
    7.8989  -11.1669   -1.3604 C   0  0
    8.1380   -8.8605   -0.3265 C   0  0
    1.0246   -6.2622   -3.0934 C   0  0
   -0.2225   -7.8075   -0.9685 O   0  0
   -2.0096   -6.5550   -4.2596 O   0  0
   -0.8481   -8.4799    0.0238 C   0  0
   -2.0058   -7.6876    0.6145 C   0  0
   -0.5605   -9.6026    0.4399 O   0  0
    5.4064  -10.3967    2.4519 H   0  0
    6.1975   -8.9388    1.9577 H   0  0
    7.6006  -10.8718    1.3922 H   0  0
    6.2716  -11.6446    0.5872 H   0  0
    3.9187  -10.3958    0.5383 H   0  0
    3.8202   -8.8655    1.3581 H   0  0
    5.3748  -10.5549   -1.5697 H   0  0
    6.6087   -8.0699   -2.7740 H   0  0
    6.8396   -9.6777   -3.3473 H   0  0
    5.0472   -8.6503   -4.6543 H   0  0
    4.5813  -10.0690   -3.7693 H   0  0
    3.2155   -9.7780   -1.6203 H   0  0
    0.7255   -9.4357   -1.7431 H   0  0
    2.0422   -8.6078    0.1134 H   0  0
    2.3209   -7.0773   -0.6338 H   0  0
    2.3775   -7.9479   -4.7768 H   0  0
    2.8488  -10.2711   -4.9044 H   0  0
    2.1515  -10.6302   -3.3351 H   0  0
    0.7515  -11.0612   -5.6106 H   0  0
   -1.1467   -8.4891   -3.1506 H   0  0
   -1.5955  -10.1007   -6.4142 H   0  0
   -2.4451   -9.6925   -4.9158 H   0  0
   -0.3371   -6.6428   -5.4201 H   0  0
    5.8245   -6.8386   -1.0718 H   0  0
    4.4050   -6.6398   -0.0653 H   0  0
    5.8586   -7.2428    0.6145 H   0  0
    3.7245   -6.1171   -2.2745 H   0  0
    5.1283   -6.5505   -3.1681 H   0  0
    3.6738   -6.2437   -4.0281 H   0  0
    8.6970  -11.6052   -0.7591 H   0  0
    7.2281  -11.9797   -1.6423 H   0  0
    8.3742  -10.8016   -2.2702 H   0  0
    9.0762   -9.2226    0.0961 H   0  0
    8.3927   -8.3353   -1.2468 H   0  0
    7.7614   -8.1273    0.3791 H   0  0
    1.3297   -5.8309   -4.0466 H   0  0
    0.0537   -5.8344   -2.8459 H   0  0
    1.6757   -5.8627   -2.3262 H   0  0
   -2.2423   -5.8078   -4.8153 H   0  0
   -2.5036   -8.2603    1.3971 H   0  0
   -1.6432   -6.7549    1.0463 H   0  0
   -2.7362   -7.4529   -0.1597 H   0  0
  1  2  1  0
  1  4  1  0
  1 32  1  0
  1 33  1  0
  2  3  1  0
  2 34  1  0
  2 35  1  0
  3  6  1  0
  3 24  1  0
  3 25  1  0
  4  5  1  0
  4 36  1  0
  4 37  1  0
  5  6  1  0
  5  9  1  0
  5 22  1  0
  6  7  1  0
  6 38  1  0
  7  8  1  0
  7 39  1  0
  7 40  1  0
  8 10  1  0
  8 41  1  0
  8 42  1  0
  9 10  1  0
  9 12  1  0
  9 43  1  0
 10 14  1  0
 10 23  1  0
 11 12  1  0
 11 13  1  0
 11 27  1  0
 11 44  1  0
 12 45  1  0
 12 46  1  0
 13 14  1  0
 13 17  1  0
 13 26  1  0
 14 15  1  0
 14 47  1  0
 15 16  1  0
 15 48  1  0
 15 49  1  0
 16 18  2  0
 16 50  1  0
 17 18  1  0
 17 21  1  0
 17 51  1  0
 18 19  1  0
 19 20  1  0
 19 52  1  0
 19 53  1  0
 20 21  1  0
 21 28  1  0
 21 54  1  0
 22 55  1  0
 22 56  1  0
 22 57  1  0
 23 58  1  0
 23 59  1  0
 23 60  1  0
 24 61  1  0
 24 62  1  0
 24 63  1  0
 25 64  1  0
 25 65  1  0
 25 66  1  0
 26 67  1  0
 26 68  1  0
 26 69  1  0
 27 29  1  0
 28 70  1  0
 29 30  1  0
 29 31  2  0
 30 71  1  0
 30 72  1  0
 30 73  1  0
M  END
> <Name>
ligand_269

> <activity>
1

$$$$
ligand_270
  SciTegic10272118463D

 80 82  0  0  1  0            999 V2000
    8.1121   -0.4127   -2.3140 N   0  0
    6.9732    0.2880   -2.5541 C   0  0
    8.9350  -10.8861   -2.3135 N   0  3
    7.1892   -2.6726   -1.6492 C   0  0
    8.1840   -1.5343   -1.3513 C   0  0  1  0  0  0
    5.6069   -5.3643   -0.5841 C   0  0
    5.7939    3.4816   -4.0809 C   0  0
    6.2710   -2.9093   -0.6949 N   0  0
    5.8642    2.2566   -3.5370 N   0  0
    5.1746   -3.8879   -0.7141 C   0  0  1  0  0  0
    6.9830    1.3274   -3.6965 C   0  0  2  0  0  0
    6.5035   -5.8030   -1.4914 N   0  0
    4.7573    5.7051   -3.9088 N   0  0
    8.2828   -9.5731   -2.0839 C   0  0
    4.0212    6.6682   -3.3311 C   0  0
    4.5117    4.2693   -3.7798 C   0  0  1  0  0  0
    9.9731  -10.9202   -2.9687 O   0  5
    8.4139  -11.8922   -1.8401 O   0  0
    3.7153   10.4923   -4.2946 C   0  0
    5.9241    0.1117   -1.9293 O   0  0
    7.2670   -3.2803   -2.7178 O   0  0
    6.6675    3.9748   -4.7966 O   0  0
    5.1222   -6.0329    0.3290 O   0  0
    4.1721   -3.6128   -1.8682 C   0  0
    3.0478    6.4310   -2.6151 O   0  0
    4.8560   10.8672   -3.9404 O   0  0
    7.0963   -9.4862   -1.3424 C   0  0
    8.8401   -8.3987   -2.6085 C   0  0
    7.0555   -7.0860   -1.6433 C   0  0
    9.4299   -0.1546   -2.9021 C   0  0
    4.4572    8.1164   -3.5882 C   0  0
    3.2882    9.0399   -4.0214 C   0  0
    2.8681   11.2193   -4.8578 O   0  5
    8.2288   -7.1669   -2.3935 C   0  0
    6.4828   -8.2557   -1.1249 C   0  0
    3.0643   -4.6378   -2.0561 C   0  0
    9.6476   -2.0107   -1.4371 C   0  0
   10.4152   -0.8033   -1.9409 C   0  0
    6.8931    0.6491   -5.0783 C   0  0
    3.3687    3.8489   -4.7225 C   0  0
    1.9432   -4.6346   -1.1992 C   0  0
    3.2192   -5.6969   -2.9770 C   0  0
    2.2458   -6.6824   -3.0727 C   0  0
    0.9803   -5.6290   -1.3115 C   0  0
    1.1287   -6.6449   -2.2475 C   0  0
    8.0008   -1.1201   -0.3578 H   0  0
    6.3026   -2.3375    0.1367 H   0  0
    5.1095    1.9215   -2.9543 H   0  0
    4.6239   -3.6815    0.2051 H   0  0
    7.8956    1.9192   -3.6395 H   0  0
    6.8510   -5.1074   -2.1388 H   0  0
    5.5569    5.9542   -4.4742 H   0  0
    4.2233    4.0538   -2.7488 H   0  0
    3.6921   -2.6508   -1.6831 H   0  0
    4.6912   -3.4992   -2.8198 H   0  0
    6.6366  -10.3738   -0.9318 H   0  0
    9.7513   -8.4318   -3.1885 H   0  0
    9.4848   -0.6341   -3.8798 H   0  0
    9.6702    0.9013   -3.0192 H   0  0
    4.9126    8.4959   -2.6722 H   0  0
    5.2496    8.1472   -4.3391 H   0  0
    2.8101    8.6399   -4.9173 H   0  0
    2.5107    9.0511   -3.2560 H   0  0
    8.6775   -6.2760   -2.8104 H   0  0
    5.5602   -8.2374   -0.5658 H   0  0
   10.0275   -2.3687   -0.4797 H   0  0
    9.7601   -2.8246   -2.1557 H   0  0
   11.3701   -1.0557   -2.4028 H   0  0
   10.6116   -0.1254   -1.1089 H   0  0
    6.9449    1.3821   -5.8838 H   0  0
    7.7052   -0.0587   -5.2394 H   0  0
    5.9558    0.1024   -5.1901 H   0  0
    2.4394    4.3608   -4.4712 H   0  0
    3.6038    4.0805   -5.7622 H   0  0
    3.1741    2.7778   -4.6571 H   0  0
    1.8305   -3.8602   -0.4545 H   0  0
    4.0950   -5.7459   -3.6077 H   0  0
    2.3619   -7.4857   -3.7853 H   0  0
    0.1172   -5.6175   -0.6622 H   0  0
    0.3773   -7.4169   -2.3257 H   0  0
  1  2  1  0
  1  5  1  0
  1 30  1  0
  2 11  1  0
  2 20  2  0
  3 14  1  0
  3 17  1  0
  3 18  2  0
  4  5  1  0
  4  8  1  0
  4 21  2  0
  5 37  1  0
  5 46  1  0
  6 10  1  0
  6 12  1  0
  6 23  2  0
  7  9  1  0
  7 16  1  0
  7 22  2  0
  8 10  1  0
  8 47  1  0
  9 11  1  0
  9 48  1  0
 10 24  1  0
 10 49  1  0
 11 39  1  0
 11 50  1  0
 12 29  1  0
 12 51  1  0
 13 15  1  0
 13 16  1  0
 13 52  1  0
 14 27  1  0
 14 28  2  0
 15 25  2  0
 15 31  1  0
 16 40  1  0
 16 53  1  0
 19 26  2  0
 19 32  1  0
 19 33  1  0
 24 36  1  0
 24 54  1  0
 24 55  1  0
 27 35  2  0
 27 56  1  0
 28 34  1  0
 28 57  1  0
 29 34  2  0
 29 35  1  0
 30 38  1  0
 30 58  1  0
 30 59  1  0
 31 32  1  0
 31 60  1  0
 31 61  1  0
 32 62  1  0
 32 63  1  0
 34 64  1  0
 35 65  1  0
 36 41  2  0
 36 42  1  0
 37 38  1  0
 37 66  1  0
 37 67  1  0
 38 68  1  0
 38 69  1  0
 39 70  1  0
 39 71  1  0
 39 72  1  0
 40 73  1  0
 40 74  1  0
 40 75  1  0
 41 44  1  0
 41 76  1  0
 42 43  2  0
 42 77  1  0
 43 45  1  0
 43 78  1  0
 44 45  2  0
 44 79  1  0
 45 80  1  0
M  CHG  3   3   1  17  -1  33  -1
M  END
> <Name>
ligand_270

> <activity>
1

$$$$
ligand_271
  SciTegic10272118463D

 51 54  0  0  1  0            999 V2000
   12.5043   -7.6379    0.0071 C   0  0  2  0  0  0
   11.5690   -8.6369    0.7037 C   0  0  2  0  0  0
   12.8952   -8.5626    2.8741 C   0  0  1  0  0  0
   12.2860   -9.4952    1.7759 C   0  0  1  0  0  0
   13.6220   -9.3349    4.0408 C   0  0  1  0  0  0
   13.0139   -6.6546    1.0936 C   0  0
   13.7252   -7.3895    2.2595 C   0  0
   10.8345   -9.3197   -0.4417 C   0  0
   11.3536  -10.5385    2.4213 C   0  0
   12.6796  -10.4604    4.5603 C   0  0
   11.5344   -7.0826   -1.0401 C   0  0
   12.0827  -11.3707    3.4859 C   0  0
   10.5569   -8.1468   -1.3898 C   0  0
   13.7128   -8.2820   -0.7401 C   0  0
   14.9472   -9.9945    3.5726 C   0  0
   13.9298   -8.3390    5.2113 C   0  0
   11.5717   -5.8364   -1.5713 C   0  0
   12.4187  -10.6667    5.8729 C   0  0
   14.1838   -9.0019    6.5789 C   0  0
   10.6545   -5.1820   -2.5932 C   0  0
   13.0171   -9.9144    6.9644 C   0  0
   12.6204  -10.0225    8.1227 O   0  0
    9.6772   -8.0860   -2.2463 O   0  0
   10.8062   -8.0799    1.2604 H   0  0
   12.0320   -8.0767    3.3358 H   0  0
   13.0905  -10.0457    1.2886 H   0  0
   13.6891   -5.9171    0.6575 H   0  0
   12.1746   -6.0847    1.4966 H   0  0
   13.9656   -6.6554    3.0286 H   0  0
   14.6856   -7.7610    1.9050 H   0  0
   11.4522  -10.0712   -0.9332 H   0  0
    9.9065   -9.7897   -0.1160 H   0  0
   10.4897  -10.0441    2.8695 H   0  0
   10.9571  -11.2091    1.6579 H   0  0
   11.3932  -12.0967    3.9198 H   0  0
   12.8768  -11.9542    3.0192 H   0  0
   14.3004   -7.5195   -1.2529 H   0  0
   14.3951   -8.8069   -0.0734 H   0  0
   13.4027   -9.0019   -1.4980 H   0  0
   15.7019   -9.2514    3.3151 H   0  0
   15.3792  -10.6207    4.3543 H   0  0
   14.8120  -10.6272    2.6961 H   0  0
   14.7853   -7.7102    4.9612 H   0  0
   13.0954   -7.6451    5.3339 H   0  0
   12.3570   -5.1792   -1.2269 H   0  0
   11.7547  -11.4791    6.1308 H   0  0
   15.0875   -9.6105    6.5465 H   0  0
   14.3218   -8.2506    7.3571 H   0  0
   10.3356   -4.2084   -2.2211 H   0  0
   11.1956   -5.0229   -3.5259 H   0  0
    9.7542   -5.7481   -2.8171 H   0  0
  1  2  1  0
  1  6  1  0
  1 11  1  0
  1 14  1  0
  2  4  1  0
  2  8  1  0
  2 24  1  0
  3  4  1  0
  3  5  1  0
  3  7  1  0
  3 25  1  0
  4  9  1  0
  4 26  1  0
  5 10  1  0
  5 15  1  0
  5 16  1  0
  6  7  1  0
  6 27  1  0
  6 28  1  0
  7 29  1  0
  7 30  1  0
  8 13  1  0
  8 31  1  0
  8 32  1  0
  9 12  1  0
  9 33  1  0
  9 34  1  0
 10 12  1  0
 10 18  2  0
 11 13  1  0
 11 17  2  0
 12 35  1  0
 12 36  1  0
 13 23  2  0
 14 37  1  0
 14 38  1  0
 14 39  1  0
 15 40  1  0
 15 41  1  0
 15 42  1  0
 16 19  1  0
 16 43  1  0
 16 44  1  0
 17 20  1  0
 17 45  1  0
 18 21  1  0
 18 46  1  0
 19 21  1  0
 19 47  1  0
 19 48  1  0
 20 49  1  0
 20 50  1  0
 20 51  1  0
 21 22  2  0
M  END
> <Name>
ligand_271

> <activity>
1

$$$$
ligand_272
  DSViewer          3D                             0

 52 56  0  0  0  0  0  0  0  0999 V2000
    4.6948   28.8365   52.3982 N   0  0
    5.4092   28.5713   53.5433 C   0  0
    3.5002   30.4237   50.6738 C   0  0
    4.3081   30.2306   51.9796 C   0  0  2  0  0  0
    3.8531   29.7478   49.4879 C   0  0
    4.9976   28.9555   49.4776 N   0  0
    5.3288   27.9314   50.2891 C   0  0
    5.6004   27.2562   53.8245 N   0  0
    4.3531   27.7611   51.4479 C   0  0
    2.3850   31.2667   50.6323 C   0  0
    5.8306   29.4600   54.2866 O   0  0
    6.2678   26.7260   54.9320 C   0  0
    5.4038   31.2889   52.0117 C   0  0
    6.1868   25.3687   56.9588 C   0  0
    6.3080   27.2055   50.1466 O   0  0
    5.5742   25.8546   55.7750 C   0  0
    3.0754   29.8786   48.3363 C   0  0
    7.5269   25.7546   57.2531 C   0  0
    8.2384   26.5562   56.3240 C   0  0
    1.6105   31.3898   49.4850 C   0  0
    7.6042   27.0411   55.1836 C   0  0
    1.9440   30.6832   48.3410 C   0  0
    0.0850   32.5305   49.4762 Br  0  0
    5.4945   24.5579   57.8901 C   0  0
    5.1874   32.4366   52.7611 C   0  0
    6.5738   31.1642   51.2614 C   0  0
    8.0968   25.3454   58.4822 C   0  0
    6.0904   24.1583   59.0818 C   0  0
    7.4663   32.2198   51.1818 C   0  0
    6.0832   33.4839   52.6876 C   0  0
    7.3862   24.5547   59.3792 C   0  0
    7.2111   33.3832   51.8842 C   0  0
    3.5888   30.5328   52.7313 H   0  0
    5.5901   29.0342   48.6670 H   0  0
    5.1323   26.5853   53.2370 H   0  0
    3.3198   27.8530   51.1106 H   0  0
    4.4262   26.7459   51.8346 H   0  0
    2.1188   31.8590   51.4864 H   0  0
    4.5445   25.5951   55.5714 H   0  0
    3.3443   29.3457   47.4363 H   0  0
    9.2629   26.8246   56.5308 H   0  0
    8.1403   27.6968   54.5127 H   0  0
    1.3264   30.7733   47.4657 H   0  0
    4.4716   24.2746   57.6904 H   0  0
    4.3050   32.5395   53.3732 H   0  0
    6.7918   30.2704   50.7031 H   0  0
    9.1040   25.6519   58.7250 H   0  0
    5.5371   23.5528   59.7854 H   0  0
    8.3515   32.1442   50.5687 H   0  0
    5.8991   34.3883   53.2483 H   0  0
    7.8421   24.2513   60.3106 H   0  0
    7.9020   34.2106   51.8089 H   0  0
  1  2  1  0  0  0
  1  4  1  0  0  0
  1  9  1  0  0  0
  2  8  1  0  0  0
  2 11  2  0  0  0
  3  4  1  0  0  0
  3  5  2  0  0  0
  3 10  1  0  0  0
  4 13  1  0  0  0
  4 33  1  0  0  0
  5  6  1  0  0  0
  5 17  1  0  0  0
  6  7  1  0  0  0
  6 34  1  0  0  0
  7  9  1  0  0  0
  7 15  2  0  0  0
  8 12  1  0  0  0
  8 35  1  0  0  0
  9 36  1  0  0  0
  9 37  1  0  0  0
 10 20  2  0  0  0
 10 38  1  0  0  0
 12 16  2  0  0  0
 12 21  1  0  0  0
 13 25  2  0  0  0
 13 26  1  0  0  0
 14 16  1  0  0  0
 14 18  2  0  0  0
 14 24  1  0  0  0
 16 39  1  0  0  0
 17 22  2  0  0  0
 17 40  1  0  0  0
 18 19  1  0  0  0
 18 27  1  0  0  0
 19 21  2  0  0  0
 19 41  1  0  0  0
 20 22  1  0  0  0
 20 23  1  0  0  0
 21 42  1  0  0  0
 22 43  1  0  0  0
 24 28  2  0  0  0
 24 44  1  0  0  0
 25 30  1  0  0  0
 25 45  1  0  0  0
 26 29  2  0  0  0
 26 46  1  0  0  0
 27 31  2  0  0  0
 27 47  1  0  0  0
 28 31  1  0  0  0
 28 48  1  0  0  0
 29 32  1  0  0  0
 29 49  1  0  0  0
 30 32  2  0  0  0
 30 50  1  0  0  0
 31 51  1  0  0  0
 32 52  1  0  0  0
M  END
> <activity>
0

$$$$
ligand_273
  SciTegic10272118463D

 50 53  0  0  1  0            999 V2000
    6.5649   25.4159   55.6383 C   0  0
    7.4799   25.6435   54.7803 N   0  0
    5.2913   25.3587   55.1387 O   0  0
    6.8420   25.7573   53.5012 C   0  0  2  0  0  0
    7.1614   27.0691   52.7842 C   0  0
    6.2267   27.9269   52.3273 C   0  0
    5.3336   25.4924   53.7389 C   0  0  2  0  0  0
    6.7262   25.1919   57.0869 C   0  0
    4.3914   26.5673   53.2173 C   0  0
    4.8112   27.6579   52.5520 C   0  0
    5.7201   24.5582   57.8299 C   0  0
    6.7059   29.0740   51.7581 N   0  0
    6.0403   30.0707   51.1374 C   0  0
    5.8844   24.3130   59.1930 C   0  0
    7.0810   24.7006   59.8152 C   0  0
    7.9042   25.5924   57.7278 C   0  0
    4.9250   29.9727   50.6251 O   0  0
    8.0791   25.3461   59.0846 C   0  0
    5.9093   32.4825   51.6604 O   0  0
    6.7571   31.4318   51.1743 C   0  0
    5.6275   32.6009   53.0121 C   0  0
    4.9972   33.0727   55.7015 C   0  0
    4.5858   33.3584   57.5375 Br  0  0
    5.5061   31.5363   53.9124 C   0  0
    5.4246   33.8932   53.4880 C   0  0
    5.1078   34.1382   54.8164 C   0  0
    5.1847   31.7797   55.2376 C   0  0
    4.7538   23.6469   59.9727 C   0  0
    7.3198   24.4324   61.2897 C   0  0
    7.2399   24.9580   52.8809 H   0  0
    8.2080   27.2998   52.6494 H   0  0
    5.0317   24.5521   53.2932 H   0  0
    3.3400   26.4122   53.3724 H   0  0
    4.0604   28.3583   52.2154 H   0  0
    4.7916   24.2703   57.3633 H   0  0
    7.6450   29.2980   52.0470 H   0  0
    8.6978   26.0836   57.1797 H   0  0
    9.0003   25.6485   59.5622 H   0  0
    7.0506   31.6730   50.1527 H   0  0
    7.6799   31.4003   51.7587 H   0  0
    5.6211   30.5091   53.6317 H   0  0
    5.5063   34.7228   52.8045 H   0  0
    4.9569   35.1507   55.1374 H   0  0
    5.0579   30.9526   55.8987 H   0  0
    5.1026   22.7361   60.4593 H   0  0
    3.9096   23.3774   59.3347 H   0  0
    4.3789   24.3251   60.7416 H   0  0
    6.5775   24.9608   61.8848 H   0  0
    8.3054   24.7631   61.6123 H   0  0
    7.2422   23.3646   61.4897 H   0  0
  1  2  2  0
  1  3  1  0
  1  8  1  0
  2  4  1  0
  3  7  1  0
  4  5  1  0
  4  7  1  0
  4 30  1  0
  5  6  2  0
  5 31  1  0
  6 10  1  0
  6 12  1  0
  7  9  1  0
  7 32  1  0
  8 11  2  0
  8 16  1  0
  9 10  2  0
  9 33  1  0
 10 34  1  0
 11 14  1  0
 11 35  1  0
 12 13  1  0
 12 36  1  0
 13 17  2  0
 13 20  1  0
 14 15  2  0
 14 28  1  0
 15 18  1  0
 15 29  1  0
 16 18  2  0
 16 37  1  0
 18 38  1  0
 19 20  1  0
 19 21  1  0
 20 39  1  0
 20 40  1  0
 21 24  1  0
 21 25  2  0
 22 23  1  0
 22 26  2  0
 22 27  1  0
 24 27  2  0
 24 41  1  0
 25 26  1  0
 25 42  1  0
 26 43  1  0
 27 44  1  0
 28 45  1  0
 28 46  1  0
 28 47  1  0
 29 48  1  0
 29 49  1  0
 29 50  1  0
M  END
> <activity>
0

$$$$
ligand_274
  SciTegic10272118463D

 46 49  0  0  1  0            999 V2000
    5.9939   25.3581   56.6906 C   0  0
    5.2520   24.6390   57.4895 N   0  0
    7.2670   25.5811   57.1873 N   0  0
    7.2916   25.0321   58.4557 C   0  0
    4.6584   29.2084   50.7565 C   0  0
    6.0111   24.4519   58.6033 C   0  0
    3.5366   29.7747   50.0474 C   0  0
    5.3505   26.0371   55.2057 S   0  0
    3.4708   31.1958   49.8880 C   0  0
    6.6863   25.7397   52.8284 C   0  0
    5.8512   27.1576   51.1806 N   0  0
    2.4622   29.0040   49.4910 C   0  0
    5.6414   30.0921   51.2637 C   0  0
    4.7385   27.7652   51.0604 C   0  0
    5.7452   26.0429   51.9120 N   0  0
    2.3728   31.7758   49.2243 C   0  0
    7.8610   26.1239   52.8007 O   0  0
    4.4974   32.0144   50.3978 C   0  0
    6.1804   24.9407   54.0247 C   0  0
    5.5661   31.4596   51.0707 C   0  0
    1.3473   31.0047   48.7231 C   0  0
    8.3370   26.3266   56.5409 C   0  0
    1.3874   29.6203   48.8463 C   0  0
    6.7073   29.6600   52.0082 O   0  0
   -0.0889   31.9245   47.8888 Br  0  0
    8.2431   24.9834   59.4801 C   0  0
    5.6670   23.8075   59.7941 C   0  0
    7.8748   24.3328   60.6567 C   0  0
    6.6145   23.7619   60.8103 C   0  0
    2.4691   27.9261   49.5665 H   0  0
    3.7786   27.2967   51.2790 H   0  0
    4.7995   25.7169   52.0476 H   0  0
    2.3084   32.8447   49.0999 H   0  0
    4.4471   33.0837   50.2845 H   0  0
    7.0173   24.4197   54.4886 H   0  0
    5.4769   24.1584   53.7492 H   0  0
    6.3359   32.1034   51.4729 H   0  0
    8.4991   25.9454   55.5336 H   0  0
    9.2627   26.2228   57.1068 H   0  0
    8.0633   27.3785   56.4827 H   0  0
    0.5818   29.0205   48.4480 H   0  0
    6.7256   28.6981   52.0521 H   0  0
    9.2171   25.4377   59.3859 H   0  0
    4.6877   23.3711   59.9285 H   0  0
    8.5830   24.2766   61.4703 H   0  0
    6.3618   23.2727   61.7368 H   0  0
  1  2  2  0
  1  3  1  0
  1  8  1  0
  2  6  1  0
  3  4  1  0
  3 22  1  0
  4  6  2  0
  4 26  1  0
  5  7  2  0
  5 13  1  0
  5 14  1  0
  6 27  1  0
  7  9  1  0
  7 12  1  0
  8 19  1  0
  9 16  1  0
  9 18  2  0
 10 15  1  0
 10 17  2  0
 10 19  1  0
 11 14  2  0
 11 15  1  0
 12 23  2  0
 12 30  1  0
 13 20  2  0
 13 24  1  0
 14 31  1  0
 15 32  1  0
 16 21  2  0
 16 33  1  0
 18 20  1  0
 18 34  1  0
 19 35  1  0
 19 36  1  0
 20 37  1  0
 21 23  1  0
 21 25  1  0
 22 38  1  0
 22 39  1  0
 22 40  1  0
 23 41  1  0
 24 42  1  0
 26 28  2  0
 26 43  1  0
 27 29  2  0
 27 44  1  0
 28 29  1  0
 28 45  1  0
 29 46  1  0
M  END
> <activity>
0

$$$$
ligand_275
  SciTegic10272118463D

 41 43  0  0  1  0            999 V2000
    6.7063   24.8491   58.8173 N   0  0
    4.0348   29.0324   50.7817 C   0  0
    5.7058   24.1581   59.4421 C   0  0
    2.3799   30.4715   49.7176 C   0  0
    2.7713   29.2056   50.1758 C   0  0
    6.9648   26.3476   53.2514 C   0  0
    3.2167   31.5708   49.8881 C   0  0
    6.7183   25.2399   57.4456 C   0  0
    5.6727   27.5054   51.6732 N   0  0
    4.8771   30.1530   50.8951 C   0  0
    6.8568   25.9449   54.7072 C   0  0
    4.4684   31.4110   50.4690 C   0  0
    5.7949   26.5519   52.6112 N   0  0
    4.4599   27.7534   51.3757 C   0  0
    4.7059   23.6249   58.9646 O   0  0
    8.0733   26.5570   52.7443 O   0  0
    7.9062   25.7131   56.8811 C   0  0
    5.5780   25.2023   56.6277 C   0  0
    5.6467   25.5226   55.2762 C   0  0
    7.9780   26.0569   55.5359 C   0  0
    0.7060   30.7350   48.8437 Br  0  0
    1.8969   28.1580   50.0042 O   0  0
    7.8367   25.0887   59.7358 C   0  0
    5.6257   32.9039   50.6899 Br  0  0
    6.0199   24.1657   60.9279 C   0  0
    7.5065   24.3711   61.0240 C   0  0
    2.9004   32.5459   49.5486 H   0  0
    5.8493   30.0705   51.3625 H   0  0
    4.9265   26.2536   53.0273 H   0  0
    3.6502   27.0532   51.5791 H   0  0
    8.8076   25.8071   57.4673 H   0  0
    4.6101   24.9385   57.0185 H   0  0
    4.7364   25.4503   54.6990 H   0  0
    8.9223   26.4155   55.1508 H   0  0
    2.3065   27.2906   49.8879 H   0  0
    8.7738   24.7086   59.3262 H   0  0
    7.9566   26.1577   59.9060 H   0  0
    5.6923   23.2436   61.4093 H   0  0
    5.4696   24.9906   61.3847 H   0  0
    7.7982   24.9454   61.9040 H   0  0
    8.0233   23.4106   61.0650 H   0  0
  1  3  1  0
  1  8  1  0
  1 23  1  0
  2  5  1  0
  2 10  2  0
  2 14  1  0
  3 15  2  0
  3 25  1  0
  4  5  2  0
  4  7  1  0
  4 21  1  0
  5 22  1  0
  6 11  1  0
  6 13  1  0
  6 16  2  0
  7 12  2  0
  7 27  1  0
  8 17  1  0
  8 18  2  0
  9 13  1  0
  9 14  2  0
 10 12  1  0
 10 28  1  0
 11 19  2  0
 11 20  1  0
 12 24  1  0
 13 29  1  0
 14 30  1  0
 17 20  2  0
 17 31  1  0
 18 19  1  0
 18 32  1  0
 19 33  1  0
 20 34  1  0
 22 35  1  0
 23 26  1  0
 23 36  1  0
 23 37  1  0
 25 26  1  0
 25 38  1  0
 25 39  1  0
 26 40  1  0
 26 41  1  0
M  END
> <activity>
0

$$$$
ligand_276
  SciTegic10272118463D

 52 55  0  0  1  0            999 V2000
    7.1795   25.3599   55.3856 N   0  0
    7.4514   25.6093   56.7175 C   0  0
    7.9038   26.1764   54.6127 N   0  0
    8.6204   26.9551   55.4884 N   0  0
    8.3477   26.5580   56.7894 N   0  0
    6.1746   24.0925   54.6878 S   0  0
    4.9041   26.0472   53.1812 C   0  0
    5.5152   30.7263   53.0431 C   0  0
    4.6554   24.9606   54.2117 C   0  0
    5.2515   28.3407   52.9467 N   0  0
    6.1306   30.9410   51.7906 C   0  0
    6.8857   24.9332   57.9294 C   0  0
    4.8894   27.2896   53.6764 N   0  0
    5.2031   31.8317   53.8289 C   0  0
    6.4024   29.8870   50.9447 O   0  0
    5.1228   25.7581   52.0031 O   0  0
    5.1627   29.4213   53.5933 C   0  0
    6.4841   32.2326   51.3887 C   0  0
    5.5059   33.1091   53.3975 C   0  0
    5.6274   29.8121   49.7444 C   0  0
    6.1765   33.3198   52.1977 C   0  0
    4.9757   34.5579   54.4927 Br  0  0
    4.1182   29.7895   49.9995 C   0  0
    5.5453   24.5579   58.0032 C   0  0
    7.6986   24.7260   59.0468 C   0  0
    3.3878   30.9767   50.0312 C   0  0
    3.4591   28.5796   50.2081 C   0  0
    7.1859   24.1585   60.2065 C   0  0
    5.0326   23.9853   59.1612 C   0  0
    2.0919   28.5580   50.4533 C   0  0
    2.0202   30.9543   50.2747 C   0  0
    1.3715   29.7447   50.4867 C   0  0
    5.8495   23.7896   60.2653 C   0  0
    3.9909   24.2348   53.7514 H   0  0
    4.1415   25.3528   55.0908 H   0  0
    4.6744   27.4763   54.6441 H   0  0
    4.7020   31.7180   54.7811 H   0  0
    4.8056   29.4572   54.6235 H   0  0
    6.9864   32.3886   50.4456 H   0  0
    5.9060   30.6338   49.0880 H   0  0
    5.9058   28.9015   49.2141 H   0  0
    6.4337   34.3200   51.8880 H   0  0
    4.8780   24.7336   57.1750 H   0  0
    8.7394   25.0179   59.0250 H   0  0
    3.8827   31.9250   49.8791 H   0  0
    4.0055   27.6464   50.1905 H   0  0
    7.8269   24.0123   61.0641 H   0  0
    3.9908   23.7052   59.2094 H   0  0
    1.5921   27.6131   50.6143 H   0  0
    1.4628   31.8790   50.3011 H   0  0
    0.3081   29.7238   50.6753 H   0  0
    5.4438   23.3568   61.1687 H   0  0
  1  2  1  0
  1  3  1  0
  1  6  1  0
  2  5  2  0
  2 12  1  0
  3  4  2  0
  4  5  1  0
  6  9  1  0
  7  9  1  0
  7 13  1  0
  7 16  2  0
  8 11  2  0
  8 14  1  0
  8 17  1  0
  9 34  1  0
  9 35  1  0
 10 13  1  0
 10 17  2  0
 11 15  1  0
 11 18  1  0
 12 24  2  0
 12 25  1  0
 13 36  1  0
 14 19  2  0
 14 37  1  0
 15 20  1  0
 17 38  1  0
 18 21  2  0
 18 39  1  0
 19 21  1  0
 19 22  1  0
 20 23  1  0
 20 40  1  0
 20 41  1  0
 21 42  1  0
 23 26  2  0
 23 27  1  0
 24 29  1  0
 24 43  1  0
 25 28  2  0
 25 44  1  0
 26 31  1  0
 26 45  1  0
 27 30  2  0
 27 46  1  0
 28 33  1  0
 28 47  1  0
 29 33  2  0
 29 48  1  0
 30 32  1  0
 30 49  1  0
 31 32  2  0
 31 50  1  0
 32 51  1  0
 33 52  1  0
M  END
> <activity>
0

$$$$
ligand_277
  SciTegic10272118463D

 43 45  0  0  1  0            999 V2000
    6.0036   25.9803   52.9157 N   0  0
    7.2810   25.9526   53.3500 C   0  0
    5.1127   25.7427   53.8922 C   0  0
    5.9261   25.4981   55.0396 C   0  0
    7.1959   25.6244   54.6443 N   0  0
    5.3791   25.2022   56.2409 C   0  0
    6.0465   24.9566   57.5380 C   0  0
    5.6191   26.2187   51.5119 C   0  0
    5.4582   24.1580   58.5381 C   0  0
    6.0098   24.0829   59.8214 C   0  0
    5.1079   27.6519   51.3032 C   0  0
    7.1937   24.7528   60.1010 C   0  0
    8.3035   26.1620   52.7076 O   0  0
    4.0283   27.7580   50.5040 N   0  0
    7.2411   25.6071   57.8351 C   0  0
    3.8897   25.7372   53.7922 O   0  0
    7.7932   25.5086   59.1020 C   0  0
    5.7090   28.5967   51.8153 O   0  0
    5.2020   23.2257   61.0877 Cl  0  0
    3.3650   28.9199   50.0759 C   0  0
    4.3012   23.4823   58.2972 O   0  0
    9.2977   26.5569   59.4877 Br  0  0
    1.9583   31.1161   49.0888 C   0  0
    2.6462   28.8141   48.8839 C   0  0
    3.3658   30.1294   50.7856 C   0  0
    1.9485   29.9103   48.3870 C   0  0
    2.6661   31.2257   50.2870 C   0  0
    1.2026   32.3159   48.5523 C   0  0
    7.9906   25.5055   55.2543 H   0  0
    4.3032   25.1883   56.2958 H   0  0
    4.8484   25.5037   51.2177 H   0  0
    6.4679   26.0530   50.8468 H   0  0
    7.6214   24.7240   61.0931 H   0  0
    3.6630   26.8989   50.1066 H   0  0
    7.7142   26.2676   57.1246 H   0  0
    3.6276   24.0298   57.8862 H   0  0
    2.6352   27.8839   48.3321 H   0  0
    3.8885   30.2311   51.7248 H   0  0
    1.4041   29.8176   47.4593 H   0  0
    2.6728   32.1571   50.8348 H   0  0
    1.9060   33.1040   48.2874 H   0  0
    0.5173   32.7053   49.3058 H   0  0
    0.6212   32.0713   47.6625 H   0  0
  1  2  1  0
  1  3  1  0
  1  8  1  0
  2  5  1  0
  2 13  2  0
  3  4  1  0
  3 16  2  0
  4  5  1  0
  4  6  2  0
  5 29  1  0
  6  7  1  0
  6 30  1  0
  7  9  2  0
  7 15  1  0
  8 11  1  0
  8 31  1  0
  8 32  1  0
  9 10  1  0
  9 21  1  0
 10 12  2  0
 10 19  1  0
 11 14  1  0
 11 18  2  0
 12 17  1  0
 12 33  1  0
 14 20  1  0
 14 34  1  0
 15 17  2  0
 15 35  1  0
 17 22  1  0
 20 24  2  0
 20 25  1  0
 21 36  1  0
 23 26  2  0
 23 27  1  0
 23 28  1  0
 24 26  1  0
 24 37  1  0
 25 27  2  0
 25 38  1  0
 26 39  1  0
 27 40  1  0
 28 41  1  0
 28 42  1  0
 28 43  1  0
M  END
> <activity>
0

$$$$
ligand_278
  SciTegic10272118463D

 40 42  0  0  1  0            999 V2000
    7.0288   26.0805   55.5186 C   0  0
    7.3609   25.4999   57.5527 N   0  0
    7.9069   26.1575   56.5106 N   0  0
    6.1179   24.9470   57.2285 C   0  0
    5.9432   25.2524   55.8598 C   0  0
    7.2382   26.7922   54.2725 C   0  0
    6.3230   27.7511   53.9463 N   0  0
    5.3934   24.2769   58.1394 N   0  0
    7.9086   25.3590   58.7988 C   0  0
    6.1579   28.7094   51.6457 C   0  0  2  0  0  0
    7.1804   24.6516   59.7499 C   0  0
    6.7052   28.8906   53.0918 C   0  0
    6.3023   30.0521   50.9014 C   0  0
    5.9258   24.1564   59.3893 C   0  0
    8.3051   26.6400   53.6674 O   0  0
    6.9927   30.1562   49.8878 O   0  0
    7.8952   24.3472   61.4839 Br  0  0
    4.8636   27.5598   54.0292 C   0  0
    5.6314   31.0698   51.4929 O   0  0
    4.6907   28.2018   51.5855 C   0  0
    4.4396   27.0904   52.6194 C   0  0
    5.7489   32.4038   51.0126 C   0  0
    7.0051   33.0787   51.5858 C   0  0
    5.1224   24.9605   55.2226 H   0  0
    8.8774   25.7997   58.9794 H   0  0
    6.7887   27.9760   51.1422 H   0  0
    6.2802   29.7847   53.5522 H   0  0
    7.7861   29.0385   53.0900 H   0  0
    5.3287   23.6137   60.1093 H   0  0
    4.3922   28.5178   54.2540 H   0  0
    4.5216   26.8795   54.8006 H   0  0
    3.9860   29.0116   51.7886 H   0  0
    4.4539   27.8348   50.5849 H   0  0
    4.9830   26.1856   52.3386 H   0  0
    3.3915   26.8051   52.6092 H   0  0
    5.7528   32.4296   49.9198 H   0  0
    4.8642   32.9530   51.3326 H   0  0
    7.0673   34.1231   51.2802 H   0  0
    7.9159   32.5815   51.2487 H   0  0
    6.9929   33.0511   52.6766 H   0  0
  1  3  2  0
  1  5  1  0
  1  6  1  0
  2  3  1  0
  2  4  1  0
  2  9  1  0
  4  5  2  0
  4  8  1  0
  5 24  1  0
  6  7  1  0
  6 15  2  0
  7 12  1  0
  7 18  1  0
  8 14  2  0
  9 11  2  0
  9 25  1  0
 10 12  1  0
 10 13  1  0
 10 20  1  0
 10 26  1  0
 11 14  1  0
 11 17  1  0
 12 27  1  0
 12 28  1  0
 13 16  2  0
 13 19  1  0
 14 29  1  0
 18 21  1  0
 18 30  1  0
 18 31  1  0
 19 22  1  0
 20 21  1  0
 20 32  1  0
 20 33  1  0
 21 34  1  0
 21 35  1  0
 22 23  1  0
 22 36  1  0
 22 37  1  0
 23 38  1  0
 23 39  1  0
 23 40  1  0
M  END
> <activity>
0

$$$$
ligand_279
  SciTegic10272118463D

 58 62  0  0  1  0            999 V2000
    5.5875   30.3122   51.0910 N   0  0
    3.2967   30.0598   50.1728 C   0  0
    4.6433   29.3385   50.5190 C   0  0  2  0  0  0
    2.8866   31.2760   50.6564 C   0  0
    4.5313   28.1198   51.4397 C   0  0
    6.4755   30.9584   50.2651 C   0  0
    2.4169   29.3345   49.2077 C   0  0
    3.5605   32.1582   51.4808 N   0  0
    5.5839   27.7711   52.2487 O   0  0
    7.2028   32.2652   50.6885 C   0  0
    5.3533   30.8405   52.3700 C   0  0
    5.1590   26.7827   53.0884 C   0  0
    4.5248   31.9527   52.4731 C   0  0
    3.5060   27.2432   51.6763 C   0  0
    3.9057   26.3904   52.6888 C   0  0
    1.5276   31.8853   50.3262 C   0  0
    1.1252   31.5653   48.8688 C   0  0
    1.1027   30.0188   48.7622 C   0  0
    5.9492   26.3911   54.2930 C   0  0
    6.6918   30.5581   49.1190 O   0  0
    2.7058   28.2427   48.7314 O   0  0
    6.3437   33.2817   50.6932 F   0  0
    7.7649   32.1581   51.8876 F   0  0
    8.1550   32.5577   49.8134 F   0  0
    7.2885   26.7337   54.5101 C   0  0
    5.2459   25.6945   55.2832 C   0  0
    7.1701   25.7320   56.7077 C   0  0
    7.9029   26.4015   55.7229 C   0  0
    5.8546   25.3588   56.4809 C   0  0
    7.9055   25.3614   58.4199 Br  0  0
    5.9065   30.3408   53.5317 C   0  0
    4.7024   32.7897   53.5771 C   0  0
   -0.2701   32.1582   48.6389 C   0  0
    2.1190   32.1500   47.8358 C   0  0
    5.9064   31.0850   54.6877 C   0  0
    5.3810   32.3586   54.7003 C   0  0
    5.0391   28.9604   49.5741 H   0  0
    3.0507   33.0136   51.6387 H   0  0
    2.5439   27.2357   51.1860 H   0  0
    3.2962   25.6214   53.1367 H   0  0
    1.4599   32.9556   50.5091 H   0  0
    0.8262   31.4647   51.0586 H   0  0
    0.8944   29.7120   47.7377 H   0  0
    0.3082   29.6040   49.3834 H   0  0
    7.8367   27.2829   53.7577 H   0  0
    4.2057   25.4312   55.1584 H   0  0
    8.9261   26.6895   55.9158 H   0  0
    5.2918   24.8484   57.2495 H   0  0
    6.5119   29.4502   53.5199 H   0  0
    4.1807   33.7345   53.6225 H   0  0
   -0.2298   33.2432   48.5381 H   0  0
   -0.9151   31.9558   49.4899 H   0  0
   -0.7389   31.7638   47.7365 H   0  0
    2.2371   33.2279   47.9342 H   0  0
    1.7938   31.9569   46.8135 H   0  0
    3.1054   31.7123   47.9322 H   0  0
    6.4835   30.7023   55.4981 H   0  0
    5.4628   32.9850   55.5767 H   0  0
  1  3  1  0
  1  6  1  0
  1 11  1  0
  2  3  1  0
  2  4  2  0
  2  7  1  0
  3  5  1  0
  3 37  1  0
  4  8  1  0
  4 16  1  0
  5  9  1  0
  5 14  2  0
  6 10  1  0
  6 20  2  0
  7 18  1  0
  7 21  2  0
  8 13  1  0
  8 38  1  0
  9 12  1  0
 10 22  1  0
 10 23  1  0
 10 24  1  0
 11 13  2  0
 11 31  1  0
 12 15  2  0
 12 19  1  0
 13 32  1  0
 14 15  1  0
 14 39  1  0
 15 40  1  0
 16 17  1  0
 16 41  1  0
 16 42  1  0
 17 18  1  0
 17 33  1  0
 17 34  1  0
 18 43  1  0
 18 44  1  0
 19 25  2  0
 19 26  1  0
 25 28  1  0
 25 45  1  0
 26 29  2  0
 26 46  1  0
 27 28  2  0
 27 29  1  0
 27 30  1  0
 28 47  1  0
 29 48  1  0
 31 35  2  0
 31 49  1  0
 32 36  2  0
 32 50  1  0
 33 51  1  0
 33 52  1  0
 33 53  1  0
 34 54  1  0
 34 55  1  0
 34 56  1  0
 35 36  1  0
 35 57  1  0
 36 58  1  0
M  END
> <activity>
0

$$$$
ligand_280
  SciTegic10272118463D

 50 51  0  0  1  0            999 V2000
    4.8500   28.9020   50.6284 C   0  0
    3.5835   29.1716   50.0670 C   0  0
    3.1577   30.4991   49.8773 C   0  0
    5.6779   29.9743   50.9884 C   0  0
    5.3392   27.5011   50.9029 C   0  0
    5.4324   26.2200   54.0201 C   0  0
    3.9922   31.5407   50.2880 C   0  0
    5.2533   31.2984   50.8300 C   0  0
    5.9003   25.2487   54.8717 N   0  0
    6.3346   25.2943   56.2261 C   0  0
    4.6784   26.8781   51.8989 N   0  0
    7.6294   25.7245   56.5635 C   0  0
    5.3123   25.9567   52.7370 N   0  5
    8.0749   25.5970   57.8816 C   0  0
    5.1060   27.7315   54.6877 S   0  0
    6.3059   27.0417   50.2881 O   0  0
    5.5059   24.7855   57.2351 C   0  0
    1.7978   30.8434   49.2416 C   0  0
    7.2725   24.9786   58.8386 C   0  0
    2.7390   28.1580   49.6928 O   0  0
    6.1040   32.4909   51.2769 C   0  0
    8.7060   26.3987   55.3868 Cl  0  0
    5.9892   24.5625   58.5174 C   0  0
    7.9058   24.7147   60.6111 Br  0  0
    0.8160   31.4113   50.2812 C   0  0
    1.9352   31.7676   48.0138 C   0  0
    5.8478   32.8255   52.7564 C   0  0
    7.6065   32.3426   50.9677 C   0  0
    6.6406   29.7734   51.4374 H   0  0
    3.6541   32.5580   50.1770 H   0  0
    5.8819   24.3167   54.4859 H   0  0
    3.9370   27.3769   52.3699 H   0  0
    9.0675   25.9279   58.1521 H   0  0
    4.4673   24.5580   57.0813 H   0  0
    1.3399   29.9326   48.8557 H   0  0
    3.1066   27.2668   49.7465 H   0  0
    5.7736   33.3531   50.6938 H   0  0
    5.3498   24.1328   59.2750 H   0  0
   -0.1537   31.6271   49.8328 H   0  0
    1.1875   32.3365   50.7226 H   0  0
    0.6496   30.6968   51.0880 H   0  0
    0.9740   31.9079   47.5185 H   0  0
    2.6204   31.3450   47.2774 H   0  0
    2.3056   32.7564   48.2826 H   0  0
    4.7808   32.9172   52.9637 H   0  0
    6.3062   33.7751   53.0314 H   0  0
    6.2455   32.0535   53.4164 H   0  0
    7.7761   32.1448   49.9085 H   0  0
    8.0650   31.5335   51.5348 H   0  0
    8.1484   33.2552   51.2180 H   0  0
  1  2  2  0
  1  4  1  0
  1  5  1  0
  2  3  1  0
  2 20  1  0
  3  7  2  0
  3 18  1  0
  4  8  2  0
  4 29  1  0
  5 11  1  0
  5 16  2  0
  6  9  1  0
  6 13  1  0
  6 15  2  0
  7  8  1  0
  7 30  1  0
  8 21  1  0
  9 10  1  0
  9 31  1  0
 10 12  2  0
 10 17  1  0
 11 13  1  0
 11 32  1  0
 12 14  1  0
 12 22  1  0
 14 19  2  0
 14 33  1  0
 17 23  2  0
 17 34  1  0
 18 25  1  0
 18 26  1  0
 18 35  1  0
 19 23  1  0
 19 24  1  0
 20 36  1  0
 21 27  1  0
 21 28  1  0
 21 37  1  0
 23 38  1  0
 25 39  1  0
 25 40  1  0
 25 41  1  0
 26 42  1  0
 26 43  1  0
 26 44  1  0
 27 45  1  0
 27 46  1  0
 27 47  1  0
 28 48  1  0
 28 49  1  0
 28 50  1  0
M  CHG  1  13  -1
M  END
> <activity>
0

$$$$
ligand_281
  SciTegic10272118463D

 46 48  0  0  1  0            999 V2000
    6.0497   25.8488   54.5554 C   0  0
    7.5105   25.9776   54.6634 C   0  0
    7.9943   25.8018   55.9189 N   0  0
    5.7840   28.7425   53.4480 C   0  0
    5.9062   30.1063   52.8013 C   0  0
    5.3081   25.4119   55.6063 C   0  0
    7.2794   25.3608   57.0462 C   0  0
    5.4624   27.6380   52.7031 N   0  0
    5.3932   26.2400   53.2195 C   0  0
    5.9141   25.0908   56.9143 C   0  0
    6.8221   31.5434   51.0650 N   0  0
    5.4138   31.2423   53.4635 C   0  0
    8.2857   26.2329   53.7401 O   0  0
    6.0051   28.6902   54.6556 O   0  0
    7.9061   25.1765   58.2770 C   0  0
    5.1938   24.5576   57.9848 C   0  0
    6.6245   30.3159   51.6137 C   0  0
    5.6465   32.5150   52.9392 C   0  0
    7.1811   24.6694   59.3575 C   0  0
    5.8298   24.3467   59.2076 C   0  0
    5.0963   34.0725   53.8878 Br  0  0
    4.8217   27.7349   51.3742 C   0  0
    6.3390   32.6217   51.7331 C   0  0
    7.8672   24.4765   60.6981 C   0  0
    3.3608   28.2253   51.4249 C   0  0
    2.8101   28.5903   50.0400 C   0  0
    8.9825   25.9761   56.0072 H   0  0
    4.2336   25.3585   55.5019 H   0  0
    4.3381   25.9675   53.2708 H   0  0
    5.8183   25.5791   52.4622 H   0  0
    4.8915   31.1436   54.4057 H   0  0
    8.9543   25.4121   58.3948 H   0  0
    4.1432   24.3287   57.8879 H   0  0
    7.1055   29.4992   51.0956 H   0  0
    5.2646   23.9546   60.0412 H   0  0
    5.3859   28.3820   50.7102 H   0  0
    4.8400   26.7655   50.8721 H   0  0
    6.5455   33.5913   51.3025 H   0  0
    7.3630   23.7220   61.3018 H   0  0
    7.8688   25.4132   61.2561 H   0  0
    8.9031   24.1608   60.5672 H   0  0
    2.7424   27.4493   51.8759 H   0  0
    3.2706   29.0995   52.0710 H   0  0
    1.7576   28.8717   50.1009 H   0  0
    2.8881   27.7579   49.3415 H   0  0
    3.3529   29.4321   49.6088 H   0  0
  1  2  1  0
  1  6  2  0
  1  9  1  0
  2  3  1  0
  2 13  2  0
  3  7  1  0
  3 27  1  0
  4  5  1  0
  4  8  1  0
  4 14  2  0
  5 12  2  0
  5 17  1  0
  6 10  1  0
  6 28  1  0
  7 10  2  0
  7 15  1  0
  8  9  1  0
  8 22  1  0
  9 29  1  0
  9 30  1  0
 10 16  1  0
 11 17  2  0
 11 23  1  0
 12 18  1  0
 12 31  1  0
 15 19  2  0
 15 32  1  0
 16 20  2  0
 16 33  1  0
 17 34  1  0
 18 21  1  0
 18 23  2  0
 19 20  1  0
 19 24  1  0
 20 35  1  0
 22 25  1  0
 22 36  1  0
 22 37  1  0
 23 38  1  0
 24 39  1  0
 24 40  1  0
 24 41  1  0
 25 26  1  0
 25 42  1  0
 25 43  1  0
 26 44  1  0
 26 45  1  0
 26 46  1  0
M  END
> <activity>
0

$$$$
ligand_282
  SciTegic10272118463D

 61 65  0  0  1  0            999 V2000
    6.1626   26.9710   53.6864 C   0  0
    6.2639   27.6033   51.4910 N   0  0
    7.1606   26.3219   53.0741 C   0  0
    7.2096   26.6500   51.6633 C   0  0
    5.6706   28.0546   52.7418 C   0  0  2  0  0  0
    6.2249   25.9936   56.0456 C   0  0
    5.5056   25.1884   56.8882 O   0  0
    5.4973   26.6444   54.9520 C   0  0
    5.8975   29.5553   53.1017 C   0  0
    7.5238   26.1577   56.5134 C   0  0
    6.3044   24.9385   57.9700 C   0  0
    5.7019   32.3295   53.6132 C   0  0
    7.5410   25.5944   57.8260 C   0  0
    5.3886   31.4038   54.6090 C   0  0
    6.2424   31.8929   52.4008 C   0  0
    0.8173   30.3348   48.6354 N   0  0
    5.4989   30.0374   54.3438 C   0  0
    6.3657   30.5089   52.1810 C   0  0
    2.2984   29.0624   49.7433 N   0  0
    1.7736   29.4425   48.5324 C   0  0
    7.9107   26.1579   50.7754 O   0  0
    0.7072   30.5572   49.9349 C   0  0
    4.3060   26.9075   55.0856 O   0  0
    1.6007   29.7923   50.6707 C   0  0
    5.9544   24.2315   59.1330 C   0  0
    7.9057   25.3593   53.4963 O   0  5
    6.0173   28.1191   50.1408 C   0  0
    4.7095   31.9769   56.2982 Br  0  0
    4.7302   28.9302   49.8603 C   0  0
    5.5060   33.6736   53.8207 O   0  0
    6.6122   32.8617   51.4841 O   0  0
    3.4089   28.1576   49.9820 C   0  0
    4.7057   23.6449   59.1622 O   0  0
    8.4287   25.5836   58.9064 C   0  0
    8.1000   24.8831   60.0647 C   0  0
    6.8909   24.2079   60.1757 C   0  0
    7.3052   32.4716   50.3054 C   0  0
    4.3006   23.0194   60.3767 C   0  0
    4.5895   27.9592   52.6431 H   0  0
    8.2924   26.7475   56.0355 H   0  0
    5.1496   29.3453   55.0877 H   0  0
    6.7959   30.1855   51.2568 H   0  0
    2.1687   29.0219   47.6188 H   0  0
   -0.0071   31.2635   50.3331 H   0  0
    1.8108   29.7151   51.7279 H   0  0
    6.8871   28.7169   49.8784 H   0  0
    6.0515   27.2582   49.4880 H   0  0
    4.6688   29.8163   50.4858 H   0  0
    4.8079   29.3140   48.8409 H   0  0
    5.8842   34.1893   53.1021 H   0  0
    3.3658   27.3593   49.2459 H   0  0
    3.2782   27.7009   50.9621 H   0  0
    9.3663   26.1170   58.8509 H   0  0
    8.7921   24.8728   60.8932 H   0  0
    6.6842   23.6898   61.0994 H   0  0
    7.5066   33.3573   49.7099 H   0  0
    6.7137   31.7933   49.6881 H   0  0
    8.2654   32.0121   50.5417 H   0  0
    3.2794   22.6561   60.2885 H   0  0
    4.3192   23.7176   61.2158 H   0  0
    4.9295   22.1601   60.6091 H   0  0
  1  3  2  0
  1  5  1  0
  1  8  1  0
  2  4  1  0
  2  5  1  0
  2 27  1  0
  3  4  1  0
  3 26  1  0
  4 21  2  0
  5  9  1  0
  5 39  1  0
  6  7  1  0
  6  8  1  0
  6 10  2  0
  7 11  1  0
  8 23  2  0
  9 17  2  0
  9 18  1  0
 10 13  1  0
 10 40  1  0
 11 13  2  0
 11 25  1  0
 12 14  2  0
 12 15  1  0
 12 30  1  0
 13 34  1  0
 14 17  1  0
 14 28  1  0
 15 18  2  0
 15 31  1  0
 16 20  2  0
 16 22  1  0
 17 41  1  0
 18 42  1  0
 19 20  1  0
 19 24  1  0
 19 32  1  0
 20 43  1  0
 22 24  2  0
 22 44  1  0
 24 45  1  0
 25 33  1  0
 25 36  2  0
 27 29  1  0
 27 46  1  0
 27 47  1  0
 29 32  1  0
 29 48  1  0
 29 49  1  0
 30 50  1  0
 31 37  1  0
 32 51  1  0
 32 52  1  0
 33 38  1  0
 34 35  2  0
 34 53  1  0
 35 36  1  0
 35 54  1  0
 36 55  1  0
 37 56  1  0
 37 57  1  0
 37 58  1  0
 38 59  1  0
 38 60  1  0
 38 61  1  0
M  CHG  1  26  -1
M  END
> <activity>
0

$$$$
ligand_283
  SciTegic10272118463D

 44 47  0  0  1  0            999 V2000
    6.3094   30.3140   52.0891 C   0  0
    6.7055   29.1961   51.3756 O   0  0
    5.8157   28.4033   50.6739 C   0  0
    5.6981   30.2211   53.3673 C   0  0
    6.9530   26.0648   55.2380 C   0  0
    6.5677   31.5799   51.5334 C   0  0
    4.4080   28.9006   50.5288 C   0  0
    2.8323   30.5374   49.7845 C   0  0
    6.1536   32.7384   52.1815 C   0  0
    4.1496   30.1246   49.8900 C   0  0
    6.2049   27.9083   53.9590 N   0  0
    1.8087   29.7778   50.2653 C   0  0
    2.3462   31.6759   49.2286 O   0  0
    6.8029   25.4615   56.6130 C   0  0
    5.2732   31.4092   53.9834 C   0  0
    0.6328   30.4154   50.0381 O   0  0
    6.0191   26.9920   54.9353 N   0  0
    5.4969   32.6537   53.4012 C   0  0
    7.9059   25.4827   57.4002 N   0  0
    0.9535   31.5994   49.3541 C   0  0
    6.1531   27.2847   50.2880 O   0  0
    7.9053   25.7612   54.5102 O   0  0
    5.5364   28.9765   54.1480 C   0  0
    3.3420   28.1126   51.0031 C   0  0
    2.0185   28.5509   50.8785 C   0  0
    7.5058   31.7620   49.8873 Br  0  0
    4.9429   34.2430   54.2893 Br  0  0
    7.8000   24.9832   58.6537 C   0  0
    5.5808   24.9587   57.0680 C   0  0
    6.6208   24.4527   59.1657 C   0  0
    5.4915   24.4345   58.3560 C   0  0
    6.3491   33.7065   51.7451 H   0  0
    4.9428   30.7312   49.4884 H   0  0
    4.7845   31.3851   54.9481 H   0  0
    5.2902   27.2105   55.5976 H   0  0
    0.5770   32.4644   49.9007 H   0  0
    0.4873   31.6117   48.3679 H   0  0
    4.8091   29.0634   54.9544 H   0  0
    3.5336   27.1525   51.4623 H   0  0
    1.1970   27.9501   51.2385 H   0  0
    8.6984   25.0155   59.2540 H   0  0
    4.7064   24.9742   56.4367 H   0  0
    6.5819   24.0644   60.1721 H   0  0
    4.5560   24.0410   58.7264 H   0  0
  1  2  1  0
  1  4  2  0
  1  6  1  0
  2  3  1  0
  3  7  1  0
  3 21  2  0
  4 15  1  0
  4 23  1  0
  5 14  1  0
  5 17  1  0
  5 22  2  0
  6  9  2  0
  6 26  1  0
  7 10  1  0
  7 24  2  0
  8 10  2  0
  8 12  1  0
  8 13  1  0
  9 18  1  0
  9 32  1  0
 10 33  1  0
 11 17  1  0
 11 23  2  0
 12 16  1  0
 12 25  2  0
 13 20  1  0
 14 19  2  0
 14 29  1  0
 15 18  2  0
 15 34  1  0
 16 20  1  0
 17 35  1  0
 18 27  1  0
 19 28  1  0
 20 36  1  0
 20 37  1  0
 23 38  1  0
 24 25  1  0
 24 39  1  0
 25 40  1  0
 28 30  2  0
 28 41  1  0
 29 31  2  0
 29 42  1  0
 30 31  1  0
 30 43  1  0
 31 44  1  0
M  END
> <activity>
0

$$$$
ligand_284
  SciTegic10272118463D

 53 57  0  0  1  0            999 V2000
    6.1028   26.6483   53.7108 C   0  0
    4.9285   27.9717   52.1447 C   0  0
    4.9257   26.8091   52.9948 C   0  0
    6.1798   28.6385   52.2810 C   0  0
    6.5393   29.7349   51.6413 N   0  0
    7.2588   27.9088   53.4426 S   0  0
    5.6291   30.2689   50.7997 C   0  0
    3.9799   28.5506   51.2456 C   0  0
    6.5032   25.6437   54.6340 C   0  0
    4.3649   29.7122   50.5341 C   0  0
    5.9652   31.5115   50.2907 N   0  0
    5.7843   25.6549   55.7708 N   0  0
    7.5063   24.9594   54.4273 O   0  0
    3.9060   25.9137   53.0885 N   0  0
    7.3568   33.5844   51.7917 O   0  0
    6.2954   25.2790   57.0173 C   0  0
    7.2311   24.6149   59.5338 C   0  0
    2.5507   28.0210   51.0879 C   0  0
    7.9053   24.1580   61.2386 Br  0  0
    3.4407   30.3258   49.4599 C   0  0
    5.4793   24.5579   57.8888 C   0  0
    7.5737   25.6907   57.4200 C   0  0
    8.0380   25.3577   58.6834 C   0  0
    5.9536   24.2127   59.1516 C   0  0
    7.3535   31.9015   49.9857 C   0  0
    5.3020   32.6235   50.9841 C   0  0
    6.0834   33.1303   52.2154 C   0  0
    8.1038   32.5560   51.1669 C   0  0
    1.8865   28.3907   49.7579 C   0  0
    1.9729   29.8945   49.5496 C   0  0
    4.9040   26.1488   55.7742 H   0  0
    2.9435   26.1881   52.9598 H   0  0
    4.0842   24.9373   53.2822 H   0  0
    2.5175   26.9459   51.1950 H   0  0
    1.9482   28.4430   51.8880 H   0  0
    3.4638   31.4137   49.4650 H   0  0
    3.8340   30.0255   48.4876 H   0  0
    4.4789   24.2726   57.5996 H   0  0
    8.2070   26.2733   56.7662 H   0  0
    9.0233   25.6688   59.0019 H   0  0
    5.3328   23.6486   59.8324 H   0  0
    7.3859   32.5579   49.1215 H   0  0
    7.9058   31.0191   49.6644 H   0  0
    5.1459   33.4453   50.2880 H   0  0
    4.2983   32.3420   51.3061 H   0  0
    5.5592   33.9625   52.6871 H   0  0
    6.1732   32.3563   52.9801 H   0  0
    9.0537   32.9574   50.8288 H   0  0
    8.3736   31.7871   51.8880 H   0  0
    0.8460   28.0644   49.7600 H   0  0
    2.3717   27.8614   48.9351 H   0  0
    1.4450   30.1822   48.6396 H   0  0
    1.4784   30.4130   50.3726 H   0  0
  1  3  2  0
  1  6  1  0
  1  9  1  0
  2  3  1  0
  2  4  2  0
  2  8  1  0
  3 14  1  0
  4  5  1  0
  4  6  1  0
  5  7  2  0
  7 10  1  0
  7 11  1  0
  8 10  2  0
  8 18  1  0
  9 12  1  0
  9 13  2  0
 10 20  1  0
 11 25  1  0
 11 26  1  0
 12 16  1  0
 12 31  1  0
 14 32  1  0
 14 33  1  0
 15 27  1  0
 15 28  1  0
 16 21  1  0
 16 22  2  0
 17 19  1  0
 17 23  2  0
 17 24  1  0
 18 29  1  0
 18 34  1  0
 18 35  1  0
 20 30  1  0
 20 36  1  0
 20 37  1  0
 21 24  2  0
 21 38  1  0
 22 23  1  0
 22 39  1  0
 23 40  1  0
 24 41  1  0
 25 28  1  0
 25 42  1  0
 25 43  1  0
 26 27  1  0
 26 44  1  0
 26 45  1  0
 27 46  1  0
 27 47  1  0
 28 48  1  0
 28 49  1  0
 29 30  1  0
 29 50  1  0
 29 51  1  0
 30 52  1  0
 30 53  1  0
M  END
> <activity>
0

$$$$
ligand_285
  SciTegic10272118463D

 51 54  0  0  1  0            999 V2000
    3.5749   28.1541   51.0422 C   0  0
    4.3949   30.1674   51.8982 N   0  0
    2.4989   28.1585   50.2368 N   0  0
    4.5461   29.2385   50.9223 C   0  0
    5.8434   26.2016   54.7768 C   0  0
    3.7758   27.1826   51.9446 N   0  3
    4.8877   27.1243   52.7425 N   0  0
    2.1209   29.2591   49.4150 C   0  0
    5.2274   31.2432   51.8792 C   0  0
    7.1897   26.5964   54.6098 C   0  0
    5.4989   25.5835   55.9845 C   0  0
    4.7715   26.3996   53.7783 C   0  0
    5.4913   29.3220   49.9048 C   0  0
    1.2350   30.2452   49.8665 C   0  0
    6.2324   31.4045   50.8819 C   0  0
    6.3456   30.4181   49.8873 C   0  0
    8.1344   26.3810   55.6123 C   0  0
    6.4480   25.3581   56.9778 C   0  0
    7.7669   25.7578   56.7981 C   0  0
    5.9292   24.5062   58.5977 Br  0  0
    7.6330   27.1955   53.4600 O   0  0
    0.6059   30.0691   51.0874 O   0  0
    2.7066   29.3583   48.1576 C   0  0
    5.0868   32.2370   52.8681 C   0  0
    1.0253   31.3674   49.0553 C   0  0
    7.0688   32.5351   50.9083 C   0  0
   -0.4939   30.9187   51.4222 C   0  0
    2.4866   30.4758   47.3730 C   0  0
    5.9060   33.3581   52.8551 C   0  0
    1.6633   31.4911   47.8321 C   0  0
    6.8966   33.4991   51.8880 C   0  0
    2.1316   27.2438   49.9996 H   0  0
    3.0921   26.4458   52.0467 H   0  0
    4.4778   25.2894   56.1818 H   0  0
    3.8434   25.8771   54.0107 H   0  0
    5.5473   28.5582   49.1436 H   0  0
    7.0775   30.5581   49.1108 H   0  0
    9.1586   26.6982   55.4765 H   0  0
    8.4979   25.5935   57.5780 H   0  0
    6.8925   27.3679   52.8648 H   0  0
    3.3804   28.5860   47.8134 H   0  0
    4.3237   32.1208   53.6242 H   0  0
    0.3731   32.1698   49.3580 H   0  0
    7.8379   32.6527   50.1572 H   0  0
   -0.9000   30.6104   52.3852 H   0  0
   -1.2919   30.8740   50.6883 H   0  0
   -0.1808   31.9620   51.4879 H   0  0
    2.9687   30.5644   46.4100 H   0  0
    5.7894   34.1252   53.6080 H   0  0
    1.5017   32.3695   47.2219 H   0  0
    7.5420   34.3658   51.8882 H   0  0
  1  3  1  0
  1  4  1  0
  1  6  2  0
  2  4  2  0
  2  9  1  0
  3  8  1  0
  3 32  1  0
  4 13  1  0
  5 10  2  0
  5 11  1  0
  5 12  1  0
  6  7  1  0
  6 33  1  0
  7 12  2  0
  8 14  2  0
  8 23  1  0
  9 15  2  0
  9 24  1  0
 10 17  1  0
 10 21  1  0
 11 18  2  0
 11 34  1  0
 12 35  1  0
 13 16  2  0
 13 36  1  0
 14 22  1  0
 14 25  1  0
 15 16  1  0
 15 26  1  0
 16 37  1  0
 17 19  2  0
 17 38  1  0
 18 19  1  0
 18 20  1  0
 19 39  1  0
 21 40  1  0
 22 27  1  0
 23 28  2  0
 23 41  1  0
 24 29  2  0
 24 42  1  0
 25 30  2  0
 25 43  1  0
 26 31  2  0
 26 44  1  0
 27 45  1  0
 27 46  1  0
 27 47  1  0
 28 30  1  0
 28 48  1  0
 29 31  1  0
 29 49  1  0
 30 50  1  0
 31 51  1  0
M  CHG  1   6   1
M  END
> <activity>
0

$$$$
ligand_286
  SciTegic10272118463D

 43 46  0  0  1  0            999 V2000
    5.1027   26.2710   54.9336 N   0  0
    6.2620   25.8450   55.3898 C   0  0
    4.1985   29.9111   51.1508 N   0  0
    7.2858   25.8252   54.4735 O   0  0
    3.7311   29.0293   50.2115 C   0  0
    4.1381   31.2572   51.2022 C   0  0
    5.3599   26.5600   53.6265 C   0  0
    5.4368   31.8583   51.2909 C   0  0
    6.6995   26.2790   53.3278 C   0  0
    6.5226   25.3577   56.7747 C   0  0
    4.5244   27.0645   52.6279 C   0  0
    6.7379   31.2780   50.2879 S   0  0
    4.2042   27.7581   50.3382 N   0  0
    5.5058   24.7189   57.4879 C   0  0
    5.7287   24.2291   58.7674 C   0  0
    2.7050   29.3579   48.9312 S   0  0
    5.0499   27.2553   51.3442 C   0  0
    3.1067   31.9302   51.1690 O   0  0
    6.9702   24.3990   59.3716 C   0  0
    5.8287   32.9580   52.0439 C   0  0
    7.7854   32.5118   50.8893 C   0  0
    7.7628   25.5468   57.3828 C   0  0
    7.1531   33.3289   51.8076 C   0  0
    7.2536   26.4665   52.0524 C   0  0
    7.9811   25.0836   58.6794 C   0  0
    4.3077   23.3576   59.6925 Br  0  0
    6.3901   26.9543   51.0603 C   0  0
    7.1137   23.8756   60.6400 O   0  0
    8.2682   24.2164   61.3804 C   0  0
    4.9010   29.5192   51.7638 H   0  0
    3.5059   27.3140   52.8504 H   0  0
    3.9084   27.0958   49.6327 H   0  0
    4.5146   24.6115   57.0848 H   0  0
    5.1762   33.4776   52.7284 H   0  0
    8.8043   32.5634   50.5344 H   0  0
    8.5576   26.0544   56.8566 H   0  0
    7.6451   34.1582   52.2881 H   0  0
    8.2884   26.2432   51.8406 H   0  0
    8.9543   25.2445   59.1190 H   0  0
    6.7799   27.1181   50.0646 H   0  0
    8.2148   23.7592   62.3644 H   0  0
    8.3182   25.2992   61.4916 H   0  0
    9.1771   23.8542   60.9053 H   0  0
  1  2  2  0
  1  7  1  0
  2  4  1  0
  2 10  1  0
  3  5  1  0
  3  6  1  0
  3 30  1  0
  4  9  1  0
  5 13  1  0
  5 16  2  0
  6  8  1  0
  6 18  2  0
  7  9  1  0
  7 11  2  0
  8 12  1  0
  8 20  2  0
  9 24  2  0
 10 14  2  0
 10 22  1  0
 11 17  1  0
 11 31  1  0
 12 21  1  0
 13 17  1  0
 13 32  1  0
 14 15  1  0
 14 33  1  0
 15 19  2  0
 15 26  1  0
 17 27  2  0
 19 25  1  0
 19 28  1  0
 20 23  1  0
 20 34  1  0
 21 23  2  0
 21 35  1  0
 22 25  2  0
 22 36  1  0
 23 37  1  0
 24 27  1  0
 24 38  1  0
 25 39  1  0
 27 40  1  0
 28 29  1  0
 29 41  1  0
 29 42  1  0
 29 43  1  0
M  END
> <activity>
0

$$$$
ligand_287
  SciTegic10272118463D

 54 57  0  0  1  0            999 V2000
    3.7798   28.8600   50.7871 C   0  0
    2.6910   29.4128   50.1535 N   0  0
    3.2493   27.7580   51.4764 C   0  0
    1.5541   28.7805   50.3714 N   0  0
    1.8774   27.7580   51.0880 C   0  0
    6.9287   25.6704   55.6107 C   0  0
    5.4391   29.4696   50.6351 S   0  0
    6.7551   25.9189   54.1214 C   0  0
    5.1648   26.7495   52.5582 N   0  0
    8.0433   26.1580   56.3150 C   0  0
    3.9059   26.8243   52.4023 C   0  0
    2.6017   30.4028   49.1948 C   0  0
    5.9674   24.9580   56.3404 C   0  0
    5.4844   26.1344   53.7188 N   0  0
    7.7353   25.9646   53.3691 O   0  0
    5.4715   30.6571   51.9473 C   0  0
    8.1982   25.9218   57.6809 C   0  0
    6.1204   24.7231   57.7090 C   0  0
    7.2400   25.1997   58.3789 C   0  0
    9.0088   26.9067   55.6995 O   0  0
    4.7945   23.7580   58.6880 Br  0  0
    5.5060   32.5262   54.0119 C   0  0
    5.4936   30.2282   53.2749 C   0  0
    5.5176   32.0185   51.6479 C   0  0
    0.7480   26.7976   51.3617 C   0  0
    5.5387   32.9518   52.6838 C   0  0
    5.5060   31.1630   54.3071 C   0  0
    1.9164   31.5784   49.4785 C   0  0
    3.0015   30.0904   47.9058 C   0  0
    5.5045   33.5457   55.1379 C   0  0
    2.7060   30.9727   46.8882 C   0  0
    1.6231   32.4524   48.4483 C   0  0
    2.0330   32.1580   47.1557 C   0  0
    3.1913   26.2261   52.9664 H   0  0
    5.1060   24.5580   55.8392 H   0  0
    4.7139   25.9952   54.3545 H   0  0
    9.0630   26.2952   58.2102 H   0  0
    7.3605   25.0190   59.4374 H   0  0
    9.7367   27.1150   56.2884 H   0  0
    5.4843   29.1767   53.5125 H   0  0
    5.5301   32.3515   50.6203 H   0  0
    0.3060   26.4286   50.4353 H   0  0
   -0.0598   27.2485   51.9354 H   0  0
    1.1060   25.9279   51.8880 H   0  0
    5.5837   34.0060   52.4565 H   0  0
    5.4997   30.8262   55.3328 H   0  0
    1.5710   31.7889   50.4808 H   0  0
    3.5020   29.1560   47.6886 H   0  0
    4.4875   33.7037   55.4972 H   0  0
    5.9036   34.5073   54.8102 H   0  0
    6.1137   33.2026   55.9748 H   0  0
    3.0302   30.7475   45.8880 H   0  0
    1.0802   33.3580   48.6722 H   0  0
    1.8340   32.8528   46.3540 H   0  0
  1  2  1  0
  1  3  2  0
  1  7  1  0
  2  4  1  0
  2 12  1  0
  3  5  1  0
  3 11  1  0
  4  5  2  0
  5 25  1  0
  6  8  1  0
  6 10  2  0
  6 13  1  0
  7 16  1  0
  8 14  1  0
  8 15  2  0
  9 11  2  0
  9 14  1  0
 10 17  1  0
 10 20  1  0
 11 34  1  0
 12 28  2  0
 12 29  1  0
 13 18  2  0
 13 35  1  0
 14 36  1  0
 16 23  1  0
 16 24  2  0
 17 19  2  0
 17 37  1  0
 18 19  1  0
 18 21  1  0
 19 38  1  0
 20 39  1  0
 22 26  2  0
 22 27  1  0
 22 30  1  0
 23 27  2  0
 23 40  1  0
 24 26  1  0
 24 41  1  0
 25 42  1  0
 25 43  1  0
 25 44  1  0
 26 45  1  0
 27 46  1  0
 28 32  1  0
 28 47  1  0
 29 31  2  0
 29 48  1  0
 30 49  1  0
 30 50  1  0
 30 51  1  0
 31 33  1  0
 31 52  1  0
 32 33  2  0
 32 53  1  0
 33 54  1  0
M  END
> <activity>
0

$$$$
ligand_288
  SciTegic10272118463D

 41 44  0  0  1  0            999 V2000
    5.4173   28.5364   52.2991 N   0  0
    7.5326   25.7997   55.2265 C   0  0
    5.4538   27.4143   51.4929 C   0  0
    7.0091   25.8019   53.8585 C   0  0
    6.5626   25.4689   56.1696 N   0  0
    5.7599   29.5640   51.4412 C   0  0
    5.6883   25.6337   53.5815 C   0  0
    6.0625   29.1052   50.2553 N   0  0
    5.1949   25.3582   55.8665 N   0  0
    5.8568   27.7345   50.2884 N   0  0
    5.0227   25.7604   51.9362 S   0  0
    4.7684   25.4341   54.6609 C   0  0
    8.7059   26.1112   55.4326 O   0  0
    6.8587   25.2195   57.5610 C   0  0
    5.7965   30.9992   51.8066 C   0  0
    8.3055   26.1589   52.3961 Br  0  0
    5.1065   28.6146   53.7293 C   0  0
    7.9728   25.7584   58.2240 C   0  0
    6.0092   24.4048   58.3346 C   0  0
    4.7532   31.5212   52.5645 C   0  0
    6.8580   31.8206   51.4341 C   0  0
    4.8362   32.7931   53.0876 C   0  0
    6.2509   24.1564   59.6794 C   0  0
    8.2328   25.4830   59.5611 C   0  0
    6.9035   33.1307   51.8880 C   0  0
    7.3705   24.6876   60.2943 C   0  0
    5.9059   33.5888   52.7394 C   0  0
    3.6978   25.3576   54.4934 H   0  0
    4.1372   28.1564   53.9226 H   0  0
    5.0938   29.6308   54.1056 H   0  0
    5.8891   28.1316   54.3056 H   0  0
    8.6676   26.4214   57.7344 H   0  0
    5.1306   23.9456   57.9045 H   0  0
    3.8954   30.9145   52.8039 H   0  0
    7.6630   31.4370   50.8227 H   0  0
    4.0601   33.1870   53.7251 H   0  0
    5.5696   23.5369   60.2449 H   0  0
    9.1039   25.9065   60.0391 H   0  0
    7.7293   33.7746   51.6219 H   0  0
    7.5693   24.4890   61.3372 H   0  0
    5.9060   34.5725   53.1530 H   0  0
  1  3  1  0
  1  6  1  0
  1 17  1  0
  2  4  1  0
  2  5  1  0
  2 13  2  0
  3 10  2  0
  3 11  1  0
  4  7  2  0
  4 16  1  0
  5  9  1  0
  5 14  1  0
  6  8  2  0
  6 15  1  0
  7 11  1  0
  7 12  1  0
  8 10  1  0
  9 12  2  0
 12 28  1  0
 14 18  2  0
 14 19  1  0
 15 20  2  0
 15 21  1  0
 17 29  1  0
 17 30  1  0
 17 31  1  0
 18 24  1  0
 18 32  1  0
 19 23  2  0
 19 33  1  0
 20 22  1  0
 20 34  1  0
 21 25  2  0
 21 35  1  0
 22 27  2  0
 22 36  1  0
 23 26  1  0
 23 37  1  0
 24 26  2  0
 24 38  1  0
 25 27  1  0
 25 39  1  0
 26 40  1  0
 27 41  1  0
M  END
> <activity>
0

$$$$
ligand_289
  SciTegic10272118463D

 33 35  0  0  1  0            999 V2000
    6.9226   26.0268   55.0679 C   0  0
    5.9699   26.7670   53.0312 N   0  0
    7.0928   26.3480   53.6694 C   0  0
    7.9666   26.2324   55.9287 O   0  0
    5.8861   25.3426   55.6996 C   0  0
    5.6588   26.5457   51.6015 C   0  0  2  0  0  0
    6.2844   25.1527   57.0541 C   0  0
    7.5678   25.7354   57.1402 C   0  0
    6.6975   27.0613   50.5952 C   0  0
    8.1764   26.1585   53.1129 O   0  0
    5.7282   24.5580   58.1969 C   0  0
    6.7060   28.2501   50.2881 O   0  0
    8.3043   25.7581   58.3288 C   0  0
    7.5064   26.1591   50.0382 N   0  0
    4.9752   27.6582   53.6407 C   0  0
    6.4671   24.5590   59.3828 C   0  0
    7.7294   25.1530   59.4484 C   0  0
    5.7224   23.7577   60.9376 Br  0  0
    4.3049   27.2553   51.4193 C   0  0
    4.3060   28.3503   52.4646 C   0  0
    4.9708   25.0115   55.2287 H   0  0
    5.5196   25.4762   51.4294 H   0  0
    4.7479   24.1048   58.1660 H   0  0
    9.2803   26.2154   58.3792 H   0  0
    8.1847   26.4575   49.3525 H   0  0
    7.4933   25.1979   50.3402 H   0  0
    4.2424   27.0636   54.1865 H   0  0
    5.4123   28.3814   54.3293 H   0  0
    8.2713   25.1496   60.3840 H   0  0
    3.4945   26.5580   51.6319 H   0  0
    4.1296   27.6362   50.4112 H   0  0
    4.9160   29.1901   52.1284 H   0  0
    3.3071   28.7224   52.6879 H   0  0
  1  3  1  0
  1  4  1  0
  1  5  2  0
  2  3  1  0
  2  6  1  0
  2 15  1  0
  3 10  2  0
  4  8  1  0
  5  7  1  0
  5 21  1  0
  6  9  1  0
  6 19  1  0
  6 22  1  0
  7  8  2  0
  7 11  1  0
  8 13  1  0
  9 12  2  0
  9 14  1  0
 11 16  2  0
 11 23  1  0
 13 17  2  0
 13 24  1  0
 14 25  1  0
 14 26  1  0
 15 20  1  0
 15 27  1  0
 15 28  1  0
 16 17  1  0
 16 18  1  0
 17 29  1  0
 19 20  1  0
 19 30  1  0
 19 31  1  0
 20 32  1  0
 20 33  1  0
M  END
> <activity>
0

$$$$
ligand_290
  SciTegic10272118463D

 44 47  0  0  1  0            999 V2000
    5.4353   27.6644   53.2666 C   0  0
    4.3067   27.2626   52.6101 N   0  0
    6.0944   28.8349   53.0366 N   0  0
    5.5656   29.6556   52.0961 C   0  0
    3.8023   28.1179   51.6818 C   0  0
    4.4326   29.3224   51.3760 C   0  0
    1.8974   28.6372   50.2088 N   0  0
    5.9408   26.8257   54.4017 C   0  0
    2.5840   27.7587   51.0836 N   0  0
    6.1572   30.9893   51.9234 C   0  0
   -0.7661   32.6782   50.1076 N   0  0
    1.2353   29.5821   50.7486 C   0  0
    5.0601   26.0417   55.1620 C   0  0
    7.2948   26.8573   54.7768 C   0  0
    0.6738   30.7261   50.0251 C   0  0
    6.8444   25.4254   56.6596 C   0  0
    7.7470   26.1583   55.8946 C   0  0
    5.5058   25.3581   56.2904 C   0  0
    7.4232   24.5589   58.2524 Br  0  0
   -0.2015   31.5943   50.6881 C   0  0
   -0.4400   32.9319   48.8199 C   0  0
    5.6888   32.0531   52.6898 C   0  0
    7.0924   31.2277   50.9236 C   0  0
    0.9895   31.0164   48.6894 C   0  0
    0.4361   32.1414   48.0801 C   0  0
    6.1653   33.3352   52.4699 C   0  0
    7.5702   32.5099   50.7068 C   0  0
    7.1157   33.5602   51.4879 C   0  0
    4.0318   30.0111   50.6490 H   0  0
    2.7007   26.8472   50.6458 H   0  0
    1.0841   29.6142   51.8252 H   0  0
    4.0088   26.0033   54.9126 H   0  0
    7.9981   27.4562   54.2167 H   0  0
    8.7837   26.2171   56.1918 H   0  0
    4.8045   24.8116   56.9033 H   0  0
   -0.4941   31.4233   51.7140 H   0  0
   -0.8954   33.8074   48.3790 H   0  0
    4.9432   31.8848   53.4543 H   0  0
    7.4511   30.4154   50.3097 H   0  0
    1.6685   30.3882   48.1297 H   0  0
    0.6805   32.3976   47.0612 H   0  0
    5.8104   34.1578   53.0732 H   0  0
    8.3068   32.6771   49.9358 H   0  0
    7.5032   34.5566   51.3375 H   0  0
  1  2  1  0
  1  3  2  0
  1  8  1  0
  2  5  2  0
  3  4  1  0
  4  6  2  0
  4 10  1  0
  5  6  1  0
  5  9  1  0
  6 29  1  0
  7  9  1  0
  7 12  2  0
  8 13  2  0
  8 14  1  0
  9 30  1  0
 10 22  2  0
 10 23  1  0
 11 20  2  0
 11 21  1  0
 12 15  1  0
 12 31  1  0
 13 18  1  0
 13 32  1  0
 14 17  2  0
 14 33  1  0
 15 20  1  0
 15 24  2  0
 16 17  1  0
 16 18  2  0
 16 19  1  0
 17 34  1  0
 18 35  1  0
 20 36  1  0
 21 25  2  0
 21 37  1  0
 22 26  1  0
 22 38  1  0
 23 27  2  0
 23 39  1  0
 24 25  1  0
 24 40  1  0
 25 41  1  0
 26 28  2  0
 26 42  1  0
 27 28  1  0
 27 43  1  0
 28 44  1  0
M  END
> <activity>
0

$$$$
ligand_291
  SciTegic10272118463D

 36 38  0  0  1  0            999 V2000
    5.8992   31.1957   51.5721 N   0  0
    5.9145   32.2832   52.3743 C   0  0
    6.6844   31.2847   50.4709 C   0  0
    5.7566   26.0429   55.3774 C   0  0
    6.1710   25.5065   56.6401 C   0  0
    6.6483   26.7989   54.6110 C   0  0
    7.5932   32.4814   50.6644 C   0  0
    7.1253   33.0947   51.9482 C   0  0
    6.7053   30.5567   49.4872 O   0  0
    5.1537   32.5809   53.2958 O   0  0
    4.8682   30.2406   51.6873 O   0  0
    7.4989   25.7585   57.0937 C   0  0
    7.9378   27.0396   55.0699 C   0  0
    8.3680   26.5245   56.2859 C   0  0
    3.9979   25.7580   54.6957 Br  0  0
    5.3560   28.9063   51.8944 C   0  0
    6.2771   27.2647   53.3726 O   0  0
    5.3262   24.7423   57.4877 C   0  0
    5.9129   28.6417   53.3066 C   0  0
    7.9061   25.2606   58.3557 C   0  0
    5.7578   24.2514   58.7160 C   0  0
    7.0462   24.5159   59.1505 C   0  0
    8.6326   32.1591   50.7228 H   0  0
    7.5033   33.1623   49.8213 H   0  0
    7.9051   32.9604   52.6877 H   0  0
    6.8798   34.1564   51.8564 H   0  0
    8.6135   27.6224   54.4644 H   0  0
    9.3783   26.6994   56.6228 H   0  0
    4.5121   28.2356   51.7255 H   0  0
    6.0872   28.6166   51.1392 H   0  0
    4.3069   24.5581   57.1921 H   0  0
    6.7785   29.2750   53.5009 H   0  0
    5.1568   28.8844   54.0567 H   0  0
    8.9078   25.4612   58.7050 H   0  0
    5.0821   23.6789   59.3366 H   0  0
    7.3780   24.1414   60.1089 H   0  0
  1  2  1  0
  1  3  1  0
  1 11  1  0
  2  8  1  0
  2 10  2  0
  3  7  1  0
  3  9  2  0
  4  5  2  0
  4  6  1  0
  4 15  1  0
  5 12  1  0
  5 18  1  0
  6 13  2  0
  6 17  1  0
  7  8  1  0
  7 23  1  0
  7 24  1  0
  8 25  1  0
  8 26  1  0
 11 16  1  0
 12 14  2  0
 12 20  1  0
 13 14  1  0
 13 27  1  0
 14 28  1  0
 16 19  1  0
 16 29  1  0
 16 30  1  0
 17 19  1  0
 18 21  2  0
 18 31  1  0
 19 32  1  0
 19 33  1  0
 20 22  2  0
 20 34  1  0
 21 22  1  0
 21 35  1  0
 22 36  1  0
M  END
> <activity>
0

$$$$
ligand_292
  SciTegic10272118463D

 44 47  0  0  1  0            999 V2000
    5.6250   29.1720   51.7300 C   0  0
    4.8757   29.7631   50.7319 N   0  0
    5.4473   30.9007   50.2880 N   0  0
    6.7060   30.0057   51.8882 C   0  0
    5.3215   27.9940   52.3888 N   0  0
    4.7058   25.8407   55.4803 N   0  0
    5.7953   25.8110   53.4429 C   0  0  2  0  0  0
    6.2103   26.9870   52.5427 C   0  0
    4.5599   26.0625   54.0944 O   0  0
    5.8951   25.5341   55.7850 C   0  0
    6.7894   25.5402   54.5789 C   0  0
    6.5470   31.0603   50.9889 C   0  0
    6.3590   25.2042   57.1423 C   0  0
    3.6505   29.3496   50.1815 C   0  0
    7.3246   26.9576   52.0137 O   0  0
    5.4927   24.5557   58.0270 C   0  0
    5.9067   24.2498   59.3173 C   0  0
    4.7064   23.3583   60.4925 Br  0  0
    7.6403   25.5487   57.5830 C   0  0
    7.4293   32.2633   50.7587 C   0  0
    8.0504   25.2544   58.8819 C   0  0
    3.4730   29.3583   48.7979 C   0  0
    2.6079   28.9452   51.0148 C   0  0
    7.1815   24.5996   59.7464 C   0  0
    2.2657   28.9593   48.2524 C   0  0
    1.4029   28.5403   50.4637 C   0  0
    1.2344   28.5461   49.0845 C   0  0
    7.5062   29.8276   52.5840 H   0  0
    4.4279   27.9196   52.8496 H   0  0
    5.6864   24.9581   52.7758 H   0  0
    7.2755   24.5724   54.4544 H   0  0
    7.5662   26.3006   54.6847 H   0  0
    4.4893   24.2876   57.7291 H   0  0
    8.3346   26.0577   56.9308 H   0  0
    8.3053   32.2576   51.4110 H   0  0
    6.8974   33.1958   50.9454 H   0  0
    7.8002   32.3038   49.7334 H   0  0
    9.0400   25.5290   59.2178 H   0  0
    4.2765   29.6709   48.1433 H   0  0
    2.7218   28.9517   52.0903 H   0  0
    7.4949   24.3644   60.7535 H   0  0
    2.1324   28.9648   47.1793 H   0  0
    0.5936   28.2149   51.1039 H   0  0
    0.3037   28.2159   48.6573 H   0  0
  1  2  1  0
  1  4  2  0
  1  5  1  0
  2  3  1  0
  2 14  1  0
  3 12  2  0
  4 12  1  0
  4 28  1  0
  5  8  1  0
  5 29  1  0
  6  9  1  0
  6 10  2  0
  7  8  1  0
  7  9  1  0
  7 11  1  0
  7 30  1  0
  8 15  2  0
 10 11  1  0
 10 13  1  0
 11 31  1  0
 11 32  1  0
 12 20  1  0
 13 16  2  0
 13 19  1  0
 14 22  2  0
 14 23  1  0
 16 17  1  0
 16 33  1  0
 17 18  1  0
 17 24  2  0
 19 21  2  0
 19 34  1  0
 20 35  1  0
 20 36  1  0
 20 37  1  0
 21 24  1  0
 21 38  1  0
 22 25  1  0
 22 39  1  0
 23 26  2  0
 23 40  1  0
 24 41  1  0
 25 27  2  0
 25 42  1  0
 26 27  1  0
 26 43  1  0
 27 44  1  0
M  END
> <activity>
0

$$$$
ligand_293
  SciTegic10272118463D

 41 43  0  0  1  0            999 V2000
    5.3464   29.4793   51.6640 N   0  0
    6.3059   30.3279   49.8010 N   0  0
    5.7021   29.3051   50.3403 C   0  0
    5.6428   30.7927   51.9566 C   0  0
    6.2822   31.2721   50.7862 C   0  0
    4.8431   28.4708   52.5940 C   0  0
    6.6374   26.1969   51.0879 C   0  0
    6.0133   27.5775   53.1011 C   0  0  2  0  0  0
    6.9201   27.0482   52.1164 O   0  0
    7.5060   25.7591   50.3392 O   0  0
    6.8411   26.2561   54.9047 O   0  0
    5.6415   26.5391   54.1817 C   0  0
    6.7686   25.7132   56.1705 C   0  0
    6.7753   24.7357   58.7810 C   0  0
    6.7667   24.1579   60.5910 Br  0  0
    7.9058   25.8419   56.9672 C   0  0
    5.6370   25.0652   56.6847 C   0  0
    5.6465   24.5580   57.9838 C   0  0
    7.9061   25.3671   58.2754 C   0  0
    5.4508   31.5992   53.0824 C   0  0
    5.1777   25.8325   50.8258 C   0  0
    6.7927   32.5697   50.7630 C   0  0
    5.9057   32.9124   52.9984 C   0  0
    6.5925   33.3750   51.8785 C   0  0
    5.5328   28.3651   49.8428 H   0  0
    4.3975   28.9898   53.4424 H   0  0
    4.0134   27.9307   52.1477 H   0  0
    6.6450   28.2915   53.6325 H   0  0
    4.8870   26.9666   54.8459 H   0  0
    5.2328   25.6248   53.7516 H   0  0
    8.7821   26.3388   56.5779 H   0  0
    4.7430   24.9614   56.0906 H   0  0
    4.7683   24.0730   58.3846 H   0  0
    8.7798   25.4961   58.8986 H   0  0
    4.9534   31.2393   53.9714 H   0  0
    5.1059   25.3575   49.8528 H   0  0
    4.5291   26.6914   50.7259 H   0  0
    4.7837   25.1601   51.5848 H   0  0
    7.3147   32.9453   49.8953 H   0  0
    5.7596   33.5797   53.8359 H   0  0
    6.9648   34.3879   51.8601 H   0  0
  1  3  1  0
  1  4  1  0
  1  6  1  0
  2  3  2  0
  2  5  1  0
  3 25  1  0
  4  5  2  0
  4 20  1  0
  5 22  1  0
  6  8  1  0
  6 26  1  0
  6 27  1  0
  7  9  1  0
  7 10  2  0
  7 21  1  0
  8  9  1  0
  8 12  1  0
  8 28  1  0
 11 12  1  0
 11 13  1  0
 12 29  1  0
 12 30  1  0
 13 16  1  0
 13 17  2  0
 14 15  1  0
 14 18  2  0
 14 19  1  0
 16 19  2  0
 16 31  1  0
 17 18  1  0
 17 32  1  0
 18 33  1  0
 19 34  1  0
 20 23  2  0
 20 35  1  0
 21 36  1  0
 21 37  1  0
 21 38  1  0
 22 24  2  0
 22 39  1  0
 23 24  1  0
 23 40  1  0
 24 41  1  0
M  END
> <activity>
0

$$$$
ligand_294
  SciTegic10272118463D

 43 45  0  0  1  0            999 V2000
    3.8945   30.5306   51.3274 C   0  0
    4.6311   29.4564   51.7380 N   0  0
    4.3068   31.6028   51.9639 N   0  0
    2.7883   30.4452   50.3215 C   0  0
    5.5170   29.9182   52.6662 C   0  0
    5.3323   31.2062   52.8281 N   0  0
    2.5562   29.2917   49.5478 C   0  0
    1.9378   31.5431   50.1538 C   0  0
    7.1037   26.2703   53.5219 C   0  0
    6.7060   28.9578   53.5338 S   0  0
    8.2572   26.1578   53.9398 O   0  0
    1.5310   29.2566   48.6070 C   0  0
    6.0869   25.4831   53.9035 N   0  0
    6.7620   27.4128   52.5781 C   0  0
    0.8936   31.4918   49.2361 C   0  0
    0.7065   30.3636   48.4453 C   0  0
    3.3177   28.1613   49.7024 O   0  0
   -0.3127   32.9573   49.0865 Br  0  0
    6.1074   24.6119   55.0742 C   0  0
    6.0464   24.7932   57.6576 C   0  0
    5.6051   25.3730   56.3200 C   0  0
    7.3590   24.9786   58.0880 C   0  0
    5.1333   24.1589   58.4997 C   0  0
    5.5194   23.7585   59.7744 C   0  0
    7.7498   24.5584   59.3528 C   0  0
    6.8274   23.9569   60.1995 C   0  0
    4.5141   28.5150   51.3943 H   0  0
    2.0732   32.4353   50.7486 H   0  0
    1.3616   28.3736   48.0090 H   0  0
    5.1971   25.5780   53.4389 H   0  0
    7.5080   27.4951   51.7904 H   0  0
    5.8163   27.2006   52.0861 H   0  0
   -0.0949   30.3357   47.7260 H   0  0
    3.0679   27.4282   49.1266 H   0  0
    7.1058   24.2103   55.2435 H   0  0
    5.4693   23.7581   54.8553 H   0  0
    4.5197   25.4675   56.2875 H   0  0
    5.9771   26.3992   56.2937 H   0  0
    8.0756   25.4763   57.4507 H   0  0
    4.1074   24.0227   58.1904 H   0  0
    4.8012   23.2946   60.4352 H   0  0
    8.7687   24.7163   59.6838 H   0  0
    7.1282   23.6471   61.1903 H   0  0
  1  2  1  0
  1  3  2  0
  1  4  1  0
  2  5  1  0
  2 27  1  0
  3  6  1  0
  4  7  2  0
  4  8  1  0
  5  6  2  0
  5 10  1  0
  7 12  1  0
  7 17  1  0
  8 15  2  0
  8 28  1  0
  9 11  2  0
  9 13  1  0
  9 14  1  0
 10 14  1  0
 12 16  2  0
 12 29  1  0
 13 19  1  0
 13 30  1  0
 14 31  1  0
 14 32  1  0
 15 16  1  0
 15 18  1  0
 16 33  1  0
 17 34  1  0
 19 21  1  0
 19 35  1  0
 19 36  1  0
 20 21  1  0
 20 22  2  0
 20 23  1  0
 21 37  1  0
 21 38  1  0
 22 25  1  0
 22 39  1  0
 23 24  2  0
 23 40  1  0
 24 26  1  0
 24 41  1  0
 25 26  2  0
 25 42  1  0
 26 43  1  0
M  END
> <activity>
0

$$$$
ligand_295
  SciTegic10272118463D

 34 37  0  0  1  0            999 V2000
    6.4226   25.3757   55.5390 C   0  0
    7.6631   26.0537   55.1231 C   0  0
    6.5596   25.1764   56.9714 C   0  0
    8.3312   26.3217   56.2519 N   0  0
    5.4616   24.9584   54.8005 N   0  0
    7.7450   25.7601   57.3570 C   0  0
    5.3611   27.7773   53.7225 N   0  0
    5.2360   26.6934   52.9113 C   0  0
    5.1484   25.4147   53.4880 N   0  0
    5.3821   29.0172   53.1595 C   0  0
    5.7647   24.5580   57.9362 C   0  0
    8.0591   26.3078   53.9843 O   0  0
    8.1942   25.7474   58.6757 C   0  0
    5.2637   29.2127   51.7529 C   0  0
    5.1223   28.0667   50.9350 C   0  0
    6.1961   24.5351   59.2646 C   0  0
    5.1055   26.8061   51.5277 C   0  0
    7.4082   25.1182   59.6380 C   0  0
    5.1062   23.7129   60.5862 Br  0  0
    5.5061   30.1496   53.9957 C   0  0
    5.2799   30.5306   51.2373 C   0  0
    5.5060   31.4358   53.4617 C   0  0
    5.3998   31.6248   52.0894 C   0  0
    9.2162   26.8045   56.2614 H   0  0
    4.5857   24.7516   52.9784 H   0  0
    4.8172   24.1093   57.6761 H   0  0
    9.1280   26.2068   58.9632 H   0  0
    5.0099   28.1780   49.8669 H   0  0
    4.9772   25.9257   50.9145 H   0  0
    7.7305   25.0951   60.6695 H   0  0
    5.5900   30.0058   55.0635 H   0  0
    5.1894   30.6844   50.1720 H   0  0
    5.5969   32.2904   54.1161 H   0  0
    5.4078   32.6262   51.6840 H   0  0
  1  2  1  0
  1  3  1  0
  1  5  2  0
  2  4  1  0
  2 12  2  0
  3  6  2  0
  3 11  1  0
  4  6  1  0
  4 24  1  0
  5  9  1  0
  6 13  1  0
  7  8  2  0
  7 10  1  0
  8  9  1  0
  8 17  1  0
  9 25  1  0
 10 14  2  0
 10 20  1  0
 11 16  2  0
 11 26  1  0
 13 18  2  0
 13 27  1  0
 14 15  1  0
 14 21  1  0
 15 17  2  0
 15 28  1  0
 16 18  1  0
 16 19  1  0
 17 29  1  0
 18 30  1  0
 20 22  2  0
 20 31  1  0
 21 23  2  0
 21 32  1  0
 22 23  1  0
 22 33  1  0
 23 34  1  0
M  END
> <activity>
0

$$$$
ligand_296
  SciTegic10272118463D

 50 52  0  0  1  0            999 V2000
    5.6222   28.7674   52.9449 C   0  0
    5.4831   29.4121   51.7140 C   0  0
    5.4475   31.2717   53.1808 C   0  0
    5.6764   29.9102   54.2419 S   0  0
    5.4029   30.8317   51.8428 C   0  0
    5.7800   27.3978   53.1637 N   0  0
    5.4789   28.6787   50.4681 C   0  0
    5.3393   26.7020   54.2327 C   0  0
    5.9287   24.5584   57.9114 C   0  0
    5.3646   32.7180   53.6935 C   0  0
    6.3158   24.9581   56.6186 C   0  0
    5.5060   24.6142   55.5499 O   0  0
    6.3022   27.7974   50.2288 O   0  0
    6.7215   24.8736   59.0033 C   0  0
    4.7034   27.1945   55.1626 O   0  0
    7.5082   25.6784   56.4539 C   0  0
    4.4730   28.9598   49.6397 N   0  0
    5.6700   25.1960   54.2455 C   0  0
    4.3065   23.6326   58.2880 Br  0  0
    7.8869   25.6037   58.8249 C   0  0
    4.9922   32.9647   55.1642 C   0  0
    5.3087   31.8043   50.6755 C   0  0
    8.2881   26.0052   57.5546 C   0  0
    8.7060   25.9756   60.0289 C   0  0
    5.7469   32.4395   56.2073 C   0  0
    3.8952   33.7580   55.4879 C   0  0
    3.5059   33.9306   56.8115 C   0  0
    5.3816   32.6289   57.5337 C   0  0
    4.2467   33.3626   57.8375 C   0  0
    6.1460   26.8752   52.3799 H   0  0
    6.3058   33.2217   53.4881 H   0  0
    4.6413   33.2562   53.0820 H   0  0
    6.4117   24.5727   59.9940 H   0  0
    7.8458   25.9958   55.4809 H   0  0
    4.3480   28.3913   48.8106 H   0  0
    3.7956   29.6685   49.8740 H   0  0
    6.6632   24.9940   53.8416 H   0  0
    4.9592   24.6992   53.5848 H   0  0
    4.2832   31.9175   50.3245 H   0  0
    5.9091   31.4805   49.8261 H   0  0
    5.6719   32.8007   50.9272 H   0  0
    9.2061   26.5579   57.4195 H   0  0
    9.1532   26.9591   59.8879 H   0  0
    9.4990   25.2414   60.1686 H   0  0
    8.1046   26.0099   60.9387 H   0  0
    6.6077   31.8350   55.9847 H   0  0
    3.3046   34.2127   54.7062 H   0  0
    2.6276   34.5155   57.0417 H   0  0
    5.9658   32.1824   58.3252 H   0  0
    3.9419   33.4902   58.8649 H   0  0
  1  2  2  0
  1  4  1  0
  1  6  1  0
  2  5  1  0
  2  7  1  0
  3  4  1  0
  3  5  2  0
  3 10  1  0
  5 22  1  0
  6  8  1  0
  6 30  1  0
  7 13  2  0
  7 17  1  0
  8 15  2  0
  8 18  1  0
  9 11  2  0
  9 14  1  0
  9 19  1  0
 10 21  1  0
 10 31  1  0
 10 32  1  0
 11 12  1  0
 11 16  1  0
 12 18  1  0
 14 20  2  0
 14 33  1  0
 16 23  2  0
 16 34  1  0
 17 35  1  0
 17 36  1  0
 18 37  1  0
 18 38  1  0
 20 23  1  0
 20 24  1  0
 21 25  2  0
 21 26  1  0
 22 39  1  0
 22 40  1  0
 22 41  1  0
 23 42  1  0
 24 43  1  0
 24 44  1  0
 24 45  1  0
 25 28  1  0
 25 46  1  0
 26 27  2  0
 26 47  1  0
 27 29  1  0
 27 48  1  0
 28 29  2  0
 28 49  1  0
 29 50  1  0
M  END
> <activity>
0

$$$$
ligand_297
  SciTegic10272118463D

 45 48  0  0  1  0            999 V2000
    4.5017   30.9784   50.7566 N   0  0
    4.0831   28.9756   51.7349 C   0  0
    4.8407   30.1677   51.8247 C   0  0
    3.4525   30.3927   50.0567 C   0  0
    3.1922   29.1350   50.6631 C   0  0
    6.5361   24.9894   56.4382 C   0  0
    5.7599   30.3769   52.8544 C   0  0
    6.7261   24.7765   57.9178 C   0  0
    4.9508   26.0056   54.8846 N   0  0
    4.3060   27.9413   52.6635 C   0  0
    5.2846   25.3606   56.0553 N   0  0
    5.7461   24.1579   58.6989 C   0  0
    7.5073   24.9580   55.6774 O   0  0
    5.4696   27.1702   54.7573 C   0  0
    5.2239   28.1445   53.7017 C   0  0
    5.1702   32.2452   50.4572 C   0  0
    5.9249   29.3521   53.7773 C   0  0
    5.9840   23.9350   60.0507 C   0  0
    4.7058   22.9820   61.0811 Br  0  0
    2.7066   30.8346   48.9542 C   0  0
    2.1695   28.3254   50.1517 C   0  0
    7.9061   25.2088   58.5284 C   0  0
    8.1308   25.0142   59.8858 C   0  0
    7.1660   24.3670   60.6438 C   0  0
    6.6386   32.0058   50.0325 C   0  0
    1.7080   29.9929   48.4631 C   0  0
    1.4431   28.7616   49.0493 C   0  0
    6.3062   31.3018   52.9483 H   0  0
    3.7398   27.0238   52.6005 H   0  0
    4.5173   25.2877   56.7100 H   0  0
    4.8216   23.8002   58.2695 H   0  0
    6.1884   27.5334   55.4878 H   0  0
    4.6192   32.7736   49.6834 H   0  0
    5.1332   32.8659   51.3549 H   0  0
    6.6331   29.5251   54.5782 H   0  0
    2.8874   31.7921   48.4886 H   0  0
    1.9515   27.3620   50.5948 H   0  0
    8.6753   25.7010   57.9508 H   0  0
    9.0539   25.3484   60.3379 H   0  0
    7.3431   24.1899   61.6946 H   0  0
    7.1632   32.9540   49.9064 H   0  0
    6.7060   31.4590   49.0919 H   0  0
    7.2017   31.4396   50.7736 H   0  0
    1.1237   30.3087   47.6118 H   0  0
    0.6593   28.1348   48.6470 H   0  0
  1  3  1  0
  1  4  1  0
  1 16  1  0
  2  3  2  0
  2  5  1  0
  2 10  1  0
  3  7  1  0
  4  5  2  0
  4 20  1  0
  5 21  1  0
  6  8  1  0
  6 11  1  0
  6 13  2  0
  7 17  2  0
  7 28  1  0
  8 12  2  0
  8 22  1  0
  9 11  1  0
  9 14  2  0
 10 15  2  0
 10 29  1  0
 11 30  1  0
 12 18  1  0
 12 31  1  0
 14 15  1  0
 14 32  1  0
 15 17  1  0
 16 25  1  0
 16 33  1  0
 16 34  1  0
 17 35  1  0
 18 19  1  0
 18 24  2  0
 20 26  2  0
 20 36  1  0
 21 27  2  0
 21 37  1  0
 22 23  2  0
 22 38  1  0
 23 24  1  0
 23 39  1  0
 24 40  1  0
 25 41  1  0
 25 42  1  0
 25 43  1  0
 26 27  1  0
 26 44  1  0
 27 45  1  0
M  END
> <activity>
0

$$$$
ligand_298
  SciTegic10272118463D

 44 45  0  0  1  0            999 V2000
    5.9096   27.4404   52.1411 N   0  0
    6.4509   25.6295   53.5622 C   0  0
    7.4249   25.5669   57.3984 C   0  0
    5.5544   26.4646   53.0028 N   0  0
    7.9539   25.2697   58.6493 C   0  0
    5.5239   25.4287   55.8428 N   0  0
    6.1223   25.1485   57.0809 C   0  0
    4.9604   28.1716   51.6928 C   0  0
    5.3080   31.9824   52.2933 C   0  0
    6.3092   32.3441   51.4645 C   0  0
    5.2128   29.6294   51.2618 C   0  0  1  0  0  0
    7.6503   25.5929   53.2642 O   0  0
    4.6781   30.5968   52.3615 C   0  0
    5.9111   24.6935   54.6574 C   0  0
    5.3585   24.4733   58.0372 C   0  0
    7.2019   24.5573   59.5737 C   0  0
    6.7025   29.9115   50.9305 C   0  0
    8.5191   26.5584   56.1937 Br  0  0
    6.9258   31.3647   50.4745 C   0  0
    5.9005   24.1633   59.2814 C   0  0
    7.9054   24.1580   61.0883 Cl  0  0
    6.8958   33.7392   51.4908 C   0  0
    3.5030   27.7319   51.5067 C   0  0
    4.5811   26.4469   53.2656 H   0  0
    8.9593   25.5785   58.9005 H   0  0
    4.5298   25.5939   55.9247 H   0  0
    4.9295   32.7287   52.9763 H   0  0
    4.6459   29.8138   50.3478 H   0  0
    3.5944   30.6912   52.2883 H   0  0
    4.8846   30.2117   53.3630 H   0  0
    5.1101   24.0724   54.2552 H   0  0
    6.7063   23.9757   54.8700 H   0  0
    4.3428   24.1737   57.8264 H   0  0
    7.0685   29.2202   50.1700 H   0  0
    7.3164   29.7392   51.8175 H   0  0
    7.9911   31.5626   50.3869 H   0  0
    6.4973   31.5354   49.4870 H   0  0
    5.3141   23.6237   60.0120 H   0  0
    6.9439   34.1580   50.4883 H   0  0
    7.9098   33.7101   51.8892 H   0  0
    6.3029   34.4028   52.1169 H   0  0
    3.3150   26.7037   51.8125 H   0  0
    3.2135   27.7963   50.4572 H   0  0
    2.8295   28.3725   52.0741 H   0  0
  1  4  1  0
  1  8  2  0
  2  4  1  0
  2 12  2  0
  2 14  1  0
  3  5  2  0
  3  7  1  0
  3 18  1  0
  4 24  1  0
  5 16  1  0
  5 25  1  0
  6  7  1  0
  6 14  1  0
  6 26  1  0
  7 15  2  0
  8 11  1  0
  8 23  1  0
  9 10  2  0
  9 13  1  0
  9 27  1  0
 10 19  1  0
 10 22  1  0
 11 13  1  0
 11 17  1  0
 11 28  1  0
 13 29  1  0
 13 30  1  0
 14 31  1  0
 14 32  1  0
 15 20  1  0
 15 33  1  0
 16 20  2  0
 16 21  1  0
 17 19  1  0
 17 34  1  0
 17 35  1  0
 19 36  1  0
 19 37  1  0
 20 38  1  0
 22 39  1  0
 22 40  1  0
 22 41  1  0
 23 42  1  0
 23 43  1  0
 23 44  1  0
M  END
> <activity>
0

$$$$
ligand_299
  SciTegic10272118463D

 37 39  0  0  1  0            999 V2000
    6.9767   26.1542   55.3086 C   0  0
    5.9685   25.5574   56.0956 C   0  0
    6.8270   26.4677   53.8477 C   0  0
    6.2400   25.1697   57.4462 C   0  0
    8.2085   26.4503   55.8951 C   0  0
    5.5690   26.8572   53.5153 O   0  0
    5.4165   28.7470   51.9228 C   0  0
    4.4435   29.4335   51.0140 C   0  0
    7.7771   26.4610   53.0565 O   0  0
    5.1863   27.2444   52.1935 C   0  0
    7.5064   25.4873   58.0151 C   0  0
    8.4603   26.1579   57.2280 C   0  0
    6.3001   29.3502   52.5351 O   0  0
    4.2920   30.8247   51.1061 C   0  0
    3.6855   28.7234   50.0682 C   0  0
    4.7066   25.3582   55.5919 O   0  0
    2.6162   30.7693   49.3786 C   0  0
    2.7730   29.3909   49.2548 C   0  0
    3.3755   31.4883   50.2953 C   0  0
    1.3543   31.6839   48.2878 Br  0  0
    5.2988   24.4903   58.2743 C   0  0
    7.7791   25.1308   59.3589 C   0  0
    5.5931   24.1579   59.5925 C   0  0
    6.8285   24.4769   60.1339 C   0  0
    8.9916   26.9342   55.3280 H   0  0
    4.1220   27.0257   52.0988 H   0  0
    5.7082   26.6552   51.4404 H   0  0
    9.4173   26.4130   57.6599 H   0  0
    4.8685   31.3981   51.8189 H   0  0
    3.7833   27.6532   49.9455 H   0  0
    4.0341   25.3580   56.2803 H   0  0
    2.1873   28.8371   48.5364 H   0  0
    3.2530   32.5578   50.3829 H   0  0
    4.3244   24.2317   57.8865 H   0  0
    8.7426   25.3752   59.7859 H   0  0
    4.8544   23.6544   60.2005 H   0  0
    7.0518   24.2178   61.1582 H   0  0
  1  2  2  0
  1  3  1  0
  1  5  1  0
  2  4  1  0
  2 16  1  0
  3  6  1  0
  3  9  2  0
  4 11  2  0
  4 21  1  0
  5 12  2  0
  5 25  1  0
  6 10  1  0
  7  8  1  0
  7 10  1  0
  7 13  2  0
  8 14  2  0
  8 15  1  0
 10 26  1  0
 10 27  1  0
 11 12  1  0
 11 22  1  0
 12 28  1  0
 14 19  1  0
 14 29  1  0
 15 18  2  0
 15 30  1  0
 16 31  1  0
 17 18  1  0
 17 19  2  0
 17 20  1  0
 18 32  1  0
 19 33  1  0
 21 23  2  0
 21 34  1  0
 22 24  2  0
 22 35  1  0
 23 24  1  0
 23 36  1  0
 24 37  1  0
M  END
> <activity>
0

$$$$
ligand_300
  SciTegic10272118463D

 54 56  0  0  1  0            999 V2000
    5.7358   27.4748   52.6274 C   0  0
    4.4433   27.0380   52.5632 C   0  0
    6.1115   28.7401   51.8030 C   0  0  2  0  0  0
    5.9567   30.0989   52.5379 C   0  0
    3.5076   27.6298   51.7601 N   0  0
    3.7465   28.5172   50.7767 C   0  0
    6.8153   26.8597   53.4496 C   0  0
    6.2012   31.3260   51.8831 C   0  0
    5.5064   30.1512   53.8700 C   0  0
    5.7772   32.5236   52.4541 C   0  0
    5.1600   31.3608   54.4761 C   0  0
    5.1833   32.5251   53.7157 C   0  0
    5.2532   28.6797   50.4898 C   0  0
    2.8552   29.0868   50.1544 O   0  0
    7.9941   27.2067   53.3421 O   0  0
    7.0975   31.4546   50.2067 Br  0  0
    6.4218   25.8899   54.3237 O   0  0
    3.8233   25.8795   53.3342 C   0  0
    4.7063   31.3581   55.7792 O   0  0
    4.5275   33.6131   54.2178 O   0  0
    7.3660   25.1666   55.1198 C   0  0
    7.2788   25.3011   57.7205 C   0  0
    7.7564   25.9310   56.4078 C   0  0
    5.2394   34.8135   54.2363 C   0  0
    5.2459   32.3172   56.6817 C   0  0
    6.0260   24.6958   57.8336 C   0  0
    8.0982   25.3585   58.8481 C   0  0
    7.6855   24.8166   60.0602 C   0  0
    5.6069   24.1592   59.0470 C   0  0
    6.4354   24.2206   60.1614 C   0  0
    7.1551   28.7016   51.4970 H   0  0
    2.5325   27.3975   51.8609 H   0  0
    5.3619   29.2512   54.4467 H   0  0
    5.8726   33.4433   51.8957 H   0  0
    5.3600   29.5424   49.8406 H   0  0
    5.5556   27.8229   49.8897 H   0  0
    2.7687   25.7503   53.0888 H   0  0
    3.8857   26.0555   54.4087 H   0  0
    4.3338   24.9453   53.1022 H   0  0
    6.9264   24.1994   55.3629 H   0  0
    8.2598   24.9475   54.5352 H   0  0
    8.8440   26.0124   56.4388 H   0  0
    7.3979   26.9569   56.3440 H   0  0
    4.8119   35.3598   55.0594 H   0  0
    5.1007   35.3576   53.3081 H   0  0
    6.2987   34.6839   54.4400 H   0  0
    5.1426   31.9377   57.6973 H   0  0
    4.6999   33.2562   56.6471 H   0  0
    6.3008   32.5163   56.5051 H   0  0
    5.3579   24.6541   56.9850 H   0  0
    9.0704   25.8274   58.7901 H   0  0
    8.3375   24.8692   60.9225 H   0  0
    4.6291   23.7058   59.1274 H   0  0
    6.1083   23.8131   61.1091 H   0  0
  1  2  2  0
  1  3  1  0
  1  7  1  0
  2  5  1  0
  2 18  1  0
  3  4  1  0
  3 13  1  0
  3 31  1  0
  4  8  2  0
  4  9  1  0
  5  6  1  0
  5 32  1  0
  6 13  1  0
  6 14  2  0
  7 15  2  0
  7 17  1  0
  8 10  1  0
  8 16  1  0
  9 11  2  0
  9 33  1  0
 10 12  2  0
 10 34  1  0
 11 12  1  0
 11 19  1  0
 12 20  1  0
 13 35  1  0
 13 36  1  0
 17 21  1  0
 18 37  1  0
 18 38  1  0
 18 39  1  0
 19 25  1  0
 20 24  1  0
 21 23  1  0
 21 40  1  0
 21 41  1  0
 22 23  1  0
 22 26  2  0
 22 27  1  0
 23 42  1  0
 23 43  1  0
 24 44  1  0
 24 45  1  0
 24 46  1  0
 25 47  1  0
 25 48  1  0
 25 49  1  0
 26 29  1  0
 26 50  1  0
 27 28  2  0
 27 51  1  0
 28 30  1  0
 28 52  1  0
 29 30  2  0
 29 53  1  0
 30 54  1  0
M  END
> <activity>
0

$$$$
ligand_301
  SciTegic10272118463D

 41 44  0  0  1  0            999 V2000
    6.0016   27.6610   51.9477 C   0  0
    6.0285   29.1514   51.9603 C   0  0
    6.8201   26.1580   56.2572 C   0  0  1  0  0  0
    6.2130   27.2837   50.5732 C   0  0
    7.4518   25.0174   57.0308 C   0  0  1  0  0  0
    6.3060   28.4117   49.8880 N   0  0
    6.2309   29.5284   50.6495 C   0  0
    8.1312   26.3603   57.0010 C   0  0
    5.8680   26.6806   52.7573 N   0  0
    5.8517   30.1915   52.8802 C   0  0
    6.9665   26.1715   54.7332 C   0  0
    6.0187   26.8626   54.0683 N   0  0
    6.3071   26.1580   50.0892 O   0  0
    6.8376   24.5484   58.3297 C   0  0
    6.3139   30.8450   50.2108 C   0  0
    5.9049   31.5375   52.4716 C   0  0
    7.9060   25.5809   54.1867 O   0  0
    6.1509   31.8604   51.1385 C   0  0
    5.5060   29.8113   54.6880 Br  0  0
    5.6741   32.6699   53.4633 C   0  0
    7.6022   24.5392   59.4920 C   0  0
    5.5031   24.1580   58.3742 C   0  0
    4.9365   23.7579   59.5734 C   0  0
    7.0280   24.1548   60.6935 C   0  0
    5.6970   23.7582   60.7301 C   0  0
    5.8830   26.5580   56.6475 H   0  0
    7.9060   24.2108   56.4545 H   0  0
    6.4500   28.4099   48.8885 H   0  0
    9.0751   26.4575   56.4613 H   0  0
    8.1155   26.9580   57.9088 H   0  0
    5.2430   27.2955   54.5475 H   0  0
    6.4807   31.0919   49.1732 H   0  0
    6.1962   32.8912   50.8174 H   0  0
    4.6310   32.6821   53.7797 H   0  0
    5.9062   33.6475   53.0376 H   0  0
    6.2949   32.5403   54.3498 H   0  0
    8.6395   24.8434   59.4693 H   0  0
    4.8947   24.1729   57.4845 H   0  0
    3.9060   23.4461   59.6121 H   0  0
    7.6197   24.1561   61.5973 H   0  0
    5.2455   23.4462   61.6600 H   0  0
  1  2  1  0
  1  4  1  0
  1  9  2  0
  2  7  2  0
  2 10  1  0
  3  5  1  0
  3  8  1  0
  3 11  1  0
  3 26  1  0
  4  6  1  0
  4 13  2  0
  5  8  1  0
  5 14  1  0
  5 27  1  0
  6  7  1  0
  6 28  1  0
  7 15  1  0
  8 29  1  0
  8 30  1  0
  9 12  1  0
 10 16  2  0
 10 19  1  0
 11 12  1  0
 11 17  2  0
 12 31  1  0
 14 21  2  0
 14 22  1  0
 15 18  2  0
 15 32  1  0
 16 18  1  0
 16 20  1  0
 18 33  1  0
 20 34  1  0
 20 35  1  0
 20 36  1  0
 21 24  1  0
 21 37  1  0
 22 23  2  0
 22 38  1  0
 23 25  1  0
 23 39  1  0
 24 25  2  0
 24 40  1  0
 25 41  1  0
M  END
> <activity>
0

$$$$
ligand_302
  SciTegic10272118463D

 42 45  0  0  1  0            999 V2000
    6.4135   25.8694   55.8881 C   0  0
    7.5077   25.6229   56.5749 N   0  0
    6.2464   26.6113   54.6531 C   0  0
    5.2873   25.3577   56.4874 N   0  0
    7.0691   24.9898   57.7150 C   0  0
    5.6677   24.7843   57.6679 C   0  0
    7.7998   24.6125   58.7724 N   0  0
    5.2553   27.5040   54.4680 C   0  0
    7.1871   26.3244   53.6236 C   0  0
    3.2761   30.0288   49.8436 N   0  0
    7.9261   26.1570   52.7496 N   0  0
    4.9751   24.1578   58.7019 C   0  0
    3.9020   29.4186   50.9266 C   0  0
    4.9265   28.1575   53.2030 C   0  0
    2.2693   31.3567   47.4814 O   0  0
    3.7939   28.0329   51.0855 C   0  0
    4.5954   30.1558   51.8979 C   0  0
    5.7446   23.7879   59.8009 C   0  0
    7.1237   24.0306   59.8054 C   0  0
    4.3059   27.4039   52.2108 C   0  0
    5.1060   29.5294   53.0338 C   0  0
    4.8768   22.9582   61.2751 Br  0  0
    3.0575   31.4846   49.7827 C   0  0
    3.4942   29.4952   48.4900 C   0  0
    1.9613   31.8726   48.7659 C   0  0
    2.4176   29.9457   47.4876 C   0  0
    4.3555   25.4542   56.1100 H   0  0
    4.5936   27.7472   55.2881 H   0  0
    3.9077   23.9971   58.6733 H   0  0
    3.2586   27.4311   50.3668 H   0  0
    4.7122   31.2245   51.8034 H   0  0
    7.7221   23.7473   60.6584 H   0  0
    4.1585   26.3402   52.3331 H   0  0
    5.5852   30.1207   53.8009 H   0  0
    3.9875   32.0031   49.5497 H   0  0
    2.7377   31.8428   50.7617 H   0  0
    4.4904   29.7580   48.1345 H   0  0
    3.4703   28.4081   48.4991 H   0  0
    1.8865   32.9576   48.6881 H   0  0
    0.9802   31.5249   49.0982 H   0  0
    2.7040   29.6251   46.4901 H   0  0
    1.4641   29.4618   47.7032 H   0  0
  1  2  2  0
  1  3  1  0
  1  4  1  0
  2  5  1  0
  3  8  2  0
  3  9  1  0
  4  6  1  0
  4 27  1  0
  5  6  2  0
  5  7  1  0
  6 12  1  0
  7 19  2  0
  8 14  1  0
  8 28  1  0
  9 11  3  0
 10 13  1  0
 10 23  1  0
 10 24  1  0
 12 18  2  0
 12 29  1  0
 13 16  1  0
 13 17  2  0
 14 20  1  0
 14 21  2  0
 15 25  1  0
 15 26  1  0
 16 20  2  0
 16 30  1  0
 17 21  1  0
 17 31  1  0
 18 19  1  0
 18 22  1  0
 19 32  1  0
 20 33  1  0
 21 34  1  0
 23 25  1  0
 23 35  1  0
 23 36  1  0
 24 26  1  0
 24 37  1  0
 24 38  1  0
 25 39  1  0
 25 40  1  0
 26 41  1  0
 26 42  1  0
M  END
> <activity>
0

$$$$
ligand_303
  SciTegic10272118463D

 42 44  0  0  1  0            999 V2000
    4.8015   28.9578   50.8579 N   0  0
    5.6581   29.5888   51.6794 N   0  0
    4.1516   29.8229   50.0027 C   0  0
    4.6665   31.0642   50.3332 C   0  0
    5.5942   30.8612   51.3577 C   0  0
    4.5877   27.5121   51.0001 C   0  0
    6.1106   25.2139   56.8782 C   0  0
    7.4445   25.5997   57.2039 C   0  0
    5.6162   25.4893   55.5810 C   0  0
    7.9460   25.3077   58.4921 C   0  0
    5.8687   26.6324   50.9861 C   0  0  2  0  0  0
    5.3249   24.5579   57.8609 C   0  0
    8.2324   26.2557   56.2316 C   0  0
    6.4202   26.0985   54.6214 C   0  0
    5.8621   26.2660   53.3717 O   0  0
    7.1627   24.6221   59.4117 C   0  0
    6.6959   26.6611   52.2848 C   0  0
    7.7196   26.4955   54.9612 C   0  0
    5.8577   24.2593   59.1099 C   0  0
    7.9060   24.1581   61.0880 Br  0  0
    6.7061   26.9508   49.8880 O   0  0
    3.1111   29.3993   48.9853 C   0  0
    6.4488   31.8774   52.0739 C   0  0
    4.4018   32.0116   49.8879 H   0  0
    4.0245   27.3548   51.9202 H   0  0
    3.9299   27.1861   50.1974 H   0  0
    4.6078   25.2021   55.3232 H   0  0
    8.9584   25.5862   58.7487 H   0  0
    5.5496   25.5992   50.8330 H   0  0
    4.3057   24.2838   57.6342 H   0  0
    9.2398   26.5579   56.4800 H   0  0
    7.5286   25.9590   52.1966 H   0  0
    7.1165   27.6517   52.4632 H   0  0
    8.3488   26.9988   54.2454 H   0  0
    5.2563   23.7443   59.8452 H   0  0
    7.4943   26.3997   49.9204 H   0  0
    3.5076   28.6807   48.2681 H   0  0
    2.7359   30.2492   48.4141 H   0  0
    2.2483   28.9320   49.4624 H   0  0
    6.2997   31.8407   53.1532 H   0  0
    6.2229   32.8967   51.7568 H   0  0
    7.5102   31.7116   51.8873 H   0  0
  1  2  1  0
  1  3  1  0
  1  6  1  0
  2  5  2  0
  3  4  2  0
  3 22  1  0
  4  5  1  0
  4 24  1  0
  5 23  1  0
  6 11  1  0
  6 25  1  0
  6 26  1  0
  7  8  2  0
  7  9  1  0
  7 12  1  0
  8 10  1  0
  8 13  1  0
  9 14  2  0
  9 27  1  0
 10 16  2  0
 10 28  1  0
 11 17  1  0
 11 21  1  0
 11 29  1  0
 12 19  2  0
 12 30  1  0
 13 18  2  0
 13 31  1  0
 14 15  1  0
 14 18  1  0
 15 17  1  0
 16 19  1  0
 16 20  1  0
 17 32  1  0
 17 33  1  0
 18 34  1  0
 19 35  1  0
 21 36  1  0
 22 37  1  0
 22 38  1  0
 22 39  1  0
 23 40  1  0
 23 41  1  0
 23 42  1  0
M  END
> <activity>
0

$$$$
ligand_304
  SciTegic10272118463D

 35 37  0  0  1  0            999 V2000
    7.6852   25.9648   54.3687 N   0  0
    6.6793   25.9902   55.1351 C   0  0
    6.1929   27.0930   52.9669 C   0  0
    7.5108   26.5313   53.1307 C   0  0
    5.2234   26.7160   54.3973 S   0  0
    2.1326   29.5178   50.7635 C   0  0
    5.8880   27.8050   51.8582 C   0  0
    3.2856   30.3098   50.8112 C   0  0
    2.2171   28.1591   51.0851 C   0  0
    4.5901   28.3957   51.5207 C   0  0
    6.6690   25.5034   56.5263 C   0  0
    4.5073   29.7470   51.1802 C   0  0
    3.4391   27.6094   51.4769 C   0  0
    8.4068   26.5549   52.2904 O   0  0
    5.5062   24.9702   57.0882 C   0  0
    7.8317   25.5754   57.3056 C   0  0
    3.2286   32.1580   50.3670 Br  0  0
    0.9246   30.0554   50.3911 O   0  0
    1.1059   27.3579   51.0111 O   0  0
    5.5086   24.4906   58.3964 C   0  0
    7.8331   25.1083   58.6185 C   0  0
    6.6729   24.5590   59.1627 C   0  0
    6.6744   24.0651   60.5984 C   0  0
    6.6457   27.9535   51.0989 H   0  0
    5.3906   30.3696   51.2028 H   0  0
    3.4973   26.5587   51.7210 H   0  0
    4.5830   24.9581   56.5298 H   0  0
    8.7430   25.9958   56.9045 H   0  0
    0.2508   29.3693   50.3582 H   0  0
    1.3378   26.4352   50.8603 H   0  0
    4.5969   24.0906   58.8182 H   0  0
    8.7375   25.1735   59.2076 H   0  0
    5.8636   23.3579   60.7815 H   0  0
    6.5528   24.9058   61.2832 H   0  0
    7.6145   23.5655   60.8380 H   0  0
  1  2  2  0
  1  4  1  0
  2  5  1  0
  2 11  1  0
  3  4  1  0
  3  5  1  0
  3  7  2  0
  4 14  2  0
  6  8  2  0
  6  9  1  0
  6 18  1  0
  7 10  1  0
  7 24  1  0
  8 12  1  0
  8 17  1  0
  9 13  2  0
  9 19  1  0
 10 12  2  0
 10 13  1  0
 11 15  2  0
 11 16  1  0
 12 25  1  0
 13 26  1  0
 15 20  1  0
 15 27  1  0
 16 21  2  0
 16 28  1  0
 18 29  1  0
 19 30  1  0
 20 22  2  0
 20 31  1  0
 21 22  1  0
 21 32  1  0
 22 23  1  0
 23 33  1  0
 23 34  1  0
 23 35  1  0
M  END
> <activity>
0

$$$$
ligand_305
  SciTegic10272118463D

 55 58  0  0  1  0            999 V2000
    4.6567   27.5305   52.6750 C   0  0
    5.8123   28.2054   53.1127 C   0  0
    6.4525   27.4695   54.1350 C   0  0
    5.7578   26.3039   54.4774 C   0  0
    4.3569   26.0599   53.5199 S   0  0
    3.7603   27.7894   51.6950 N   0  0
    2.4455   29.3094   50.4166 C   0  0
    6.2570   29.4760   52.5545 C   0  0
    7.2185   25.9596   56.4293 N   0  3  2  0  0  0
    1.4322   30.8280   48.8313 C   0  0
    2.3079   30.6086   49.8979 C   0  0
    3.3610   28.9794   51.4889 C   0  0
    6.1555   25.2960   55.5262 C   0  0
    7.7611   27.8413   54.8230 C   0  0
    0.7063   29.7720   48.2883 C   0  0
    1.6876   28.2758   49.8687 C   0  0
    0.8517   28.4813   48.7964 C   0  0
    6.7078   29.5925   51.4151 O   0  0
    8.3379   26.6350   55.6025 C   0  0
    7.7798   24.9365   57.4397 C   0  0
    1.2164   32.5579   48.0777 Br  0  0
    5.9060   30.4942   53.3698 O   0  0
    3.0362   31.6669   50.3907 O   0  0
   -0.0939   26.9580   48.1502 Br  0  0
    6.9393   24.8067   58.6943 C   0  0
    6.0095   31.8427   52.9194 C   0  0
    5.7039   24.1601   58.6981 C   0  0
    7.4195   25.3580   59.8736 C   0  0
    5.4298   32.7701   53.9919 C   0  0
    4.9298   24.1296   59.8495 C   0  0
    6.6394   25.3478   61.0131 C   0  0
    5.3859   24.7474   61.0025 C   0  0
    6.7636   26.6839   56.9688 H   0  0
    3.6751   29.8235   52.0954 H   0  0
    6.5801   24.3905   55.0892 H   0  0
    5.3063   25.0431   56.1581 H   0  0
    8.4935   28.1764   54.0892 H   0  0
    7.6030   28.6890   55.4903 H   0  0
    0.0203   29.9904   47.4886 H   0  0
    1.7353   27.2840   50.2874 H   0  0
    8.7353   25.8570   54.9514 H   0  0
    9.1166   26.9572   56.2938 H   0  0
    7.9051   23.9848   56.9204 H   0  0
    8.7553   25.3390   57.7155 H   0  0
    3.7743   31.3999   50.9410 H   0  0
    7.0456   32.1073   52.6885 H   0  0
    5.4473   31.9670   51.9929 H   0  0
    5.3183   23.6819   57.8148 H   0  0
    8.3846   25.8452   59.9093 H   0  0
    5.5122   33.8146   53.6898 H   0  0
    5.9485   32.6524   54.9434 H   0  0
    4.3749   32.5552   54.1641 H   0  0
    3.9642   23.6445   59.8482 H   0  0
    7.0282   25.8334   61.8879 H   0  0
    4.7629   24.7510   61.8875 H   0  0
  1  2  2  0
  1  5  1  0
  1  6  1  0
  2  3  1  0
  2  8  1  0
  3  4  2  0
  3 14  1  0
  4  5  1  0
  4 13  1  0
  6 12  2  0
  7 11  1  0
  7 12  1  0
  7 16  2  0
  8 18  2  0
  8 22  1  0
  9 13  1  0
  9 19  1  0
  9 20  1  0
  9 33  1  0
 10 11  2  0
 10 15  1  0
 10 21  1  0
 11 23  1  0
 12 34  1  0
 13 35  1  0
 13 36  1  0
 14 19  1  0
 14 37  1  0
 14 38  1  0
 15 17  2  0
 15 39  1  0
 16 17  1  0
 16 40  1  0
 17 24  1  0
 19 41  1  0
 19 42  1  0
 20 25  1  0
 20 43  1  0
 20 44  1  0
 22 26  1  0
 23 45  1  0
 25 27  2  0
 25 28  1  0
 26 29  1  0
 26 46  1  0
 26 47  1  0
 27 30  1  0
 27 48  1  0
 28 31  2  0
 28 49  1  0
 29 50  1  0
 29 51  1  0
 29 52  1  0
 30 32  2  0
 30 53  1  0
 31 32  1  0
 31 54  1  0
 32 55  1  0
M  CHG  1   9   1
M  END
> <activity>
0

$$$$
ligand_306
  SciTegic10272118463D

 42 44  0  0  1  0            999 V2000
    6.1801   26.5709   54.2484 C   0  0
    6.8449   27.7446   53.6852 C   0  0
    4.9820   26.4408   53.6351 C   0  0
    4.7751   27.5518   52.8378 N   0  0
    5.9390   28.2968   52.8577 N   0  0
    6.7365   25.6937   55.1740 N   0  0
    7.4672   26.0641   56.2713 C   0  0
    7.2380   25.3673   57.5987 C   0  0
    7.9827   28.1586   53.8878 O   0  0
    6.0121   29.6016   52.3380 C   0  0
    6.0541   24.6787   57.9078 C   0  0
    8.0447   24.9664   59.8650 N   0  0
    8.3083   26.9577   56.2529 O   0  0
    8.1952   25.4855   58.6216 C   0  0
    4.2521   27.3814   51.4798 C   0  0
    3.9044   25.3857   53.7580 C   0  0
    5.8821   24.1515   59.1896 C   0  0
    6.7064   24.2757   54.8150 C   0  0
    4.3060   23.2062   59.6523 Br  0  0
    6.8939   24.3094   60.1335 C   0  0
    6.6451   29.8434   51.1208 C   0  0
    5.4543   30.6622   53.0493 C   0  0
    6.7072   31.1381   50.6168 C   0  0
    5.5204   31.9545   52.5440 C   0  0
    6.1473   32.1925   51.3276 C   0  0
    5.2557   24.5768   57.1865 H   0  0
    9.1115   26.0360   58.4652 H   0  0
    4.0021   28.3416   51.0270 H   0  0
    3.3339   26.7951   51.4887 H   0  0
    4.9671   26.8639   50.8387 H   0  0
    4.1271   24.5587   53.0878 H   0  0
    2.9178   25.7580   53.4974 H   0  0
    3.8708   25.0140   54.7795 H   0  0
    7.1061   23.6371   55.5970 H   0  0
    7.3003   24.1579   53.9094 H   0  0
    5.7067   23.9061   54.6108 H   0  0
    6.7878   23.9072   61.1305 H   0  0
    7.0954   29.0292   50.5720 H   0  0
    4.9648   30.4842   53.9964 H   0  0
    7.2053   31.3336   49.6788 H   0  0
    5.0872   32.7742   53.0991 H   0  0
    6.2042   33.1987   50.9391 H   0  0
  1  2  1  0
  1  3  2  0
  1  6  1  0
  2  5  1  0
  2  9  2  0
  3  4  1  0
  3 16  1  0
  4  5  1  0
  4 15  1  0
  5 10  1  0
  6  7  1  0
  6 18  1  0
  7  8  1  0
  7 13  2  0
  8 11  2  0
  8 14  1  0
 10 21  2  0
 10 22  1  0
 11 17  1  0
 11 26  1  0
 12 14  2  0
 12 20  1  0
 14 27  1  0
 15 28  1  0
 15 29  1  0
 15 30  1  0
 16 31  1  0
 16 32  1  0
 16 33  1  0
 17 19  1  0
 17 20  2  0
 18 34  1  0
 18 35  1  0
 18 36  1  0
 20 37  1  0
 21 23  1  0
 21 38  1  0
 22 24  2  0
 22 39  1  0
 23 25  2  0
 23 40  1  0
 24 25  1  0
 24 41  1  0
 25 42  1  0
M  END
> <activity>
0

$$$$
ligand_307
  SciTegic10272118463D

 40 43  0  0  1  0            999 V2000
    4.5330   28.5507   52.2222 C   0  0
    3.3540   28.1593   51.4523 C   0  0
    5.0642   27.7002   53.1627 C   0  0
    2.9804   29.2041   50.6926 N   0  0
    5.5841   25.9606   55.0056 C   0  0
    6.2923   27.0930   55.0039 N   0  0
    4.8338   29.9177   51.7330 C   0  0
    6.0913   28.0688   54.1154 C   0  0
    3.8286   30.2619   50.8493 C   0  0
    4.5983   26.0146   53.5396 S   0  0
    5.5060   24.9799   55.8086 N   0  0
    3.7557   31.5000   50.2253 C   0  0
    5.8390   24.2303   59.3990 C   0  0
    2.7467   27.1010   51.4880 O   0  0
    5.3346   24.3725   58.1111 C   0  0
    5.8584   30.8464   51.9438 C   0  0
    6.0848   24.9580   57.0876 C   0  0
    6.7060   29.1189   54.2153 O   0  0
    7.1315   24.6816   59.6847 C   0  0
    7.9060   25.2457   58.6702 C   0  0
    5.8332   32.0735   51.2850 C   0  0
    1.8098   29.1571   49.8104 C   0  0
    4.8431   23.4904   60.6026 Cl  0  0
    4.7758   32.4065   50.4502 C   0  0
    7.3978   25.3581   57.3787 C   0  0
    7.2692   33.2998   51.4880 Br  0  0
    7.7128   24.5615   61.0840 C   0  0
    6.9555   27.2642   55.7416 H   0  0
    2.9522   31.7533   49.5494 H   0  0
    4.3330   24.0245   57.9020 H   0  0
    6.7060   30.6540   52.5660 H   0  0
    8.9141   25.5790   58.8742 H   0  0
    2.1156   29.3192   48.7766 H   0  0
    1.1013   29.9389   50.0846 H   0  0
    1.2832   28.2017   49.8532 H   0  0
    4.7553   33.3580   49.9524 H   0  0
    8.0366   25.7545   56.6043 H   0  0
    8.7779   24.7851   61.0880 H   0  0
    7.5861   23.5522   61.4757 H   0  0
    7.2195   25.2593   61.7609 H   0  0
  1  2  1  0
  1  3  2  0
  1  7  1  0
  2  4  1  0
  2 14  2  0
  3  8  1  0
  3 10  1  0
  4  9  1  0
  4 22  1  0
  5  6  1  0
  5 10  1  0
  5 11  2  0
  6  8  1  0
  6 28  1  0
  7  9  2  0
  7 16  1  0
  8 18  2  0
  9 12  1  0
 11 17  1  0
 12 24  2  0
 12 29  1  0
 13 15  2  0
 13 19  1  0
 13 23  1  0
 15 17  1  0
 15 30  1  0
 16 21  2  0
 16 31  1  0
 17 25  2  0
 19 20  2  0
 19 27  1  0
 20 25  1  0
 20 32  1  0
 21 24  1  0
 21 26  1  0
 22 33  1  0
 22 34  1  0
 22 35  1  0
 24 36  1  0
 25 37  1  0
 27 38  1  0
 27 39  1  0
 27 40  1  0
M  END
> <activity>
0

$$$$
ligand_308
  SciTegic10272118463D

 47 50  0  0  1  0            999 V2000
    3.9636   30.0113   51.0644 C   0  0
    5.0016   30.8472   51.5348 N   0  0
    3.7144   28.8851   51.6130 N   0  0
    5.5639   29.1052   53.2143 C   0  0
    5.6879   30.6046   52.8380 C   0  0  2  0  0  0
    3.1670   30.4277   49.9023 C   0  0
    4.5673   28.3442   52.5796 C   0  0
    5.5159   31.9744   50.7321 C   0  0
    6.4688   28.4206   54.0344 C   0  0
    6.9220   31.6952   50.1987 C   0  0
    2.3784   31.5848   49.9207 C   0  0
    5.4157   31.6330   53.9713 C   0  0
    4.3855   26.9907   52.8635 C   0  0
    7.1060   30.7094   49.4880 O   0  0
    6.3176   27.0583   54.2880 C   0  0
    2.1993   32.5580   51.3295 Cl  0  0
    3.2539   29.6825   48.7254 C   0  0
    5.2622   26.3452   53.7275 C   0  0
    7.9060   32.5580   50.5505 O   0  0
    7.5848   26.1580   55.3880 Br  0  0
    1.7642   32.0263   48.7610 C   0  0
    4.7060   32.8161   53.7556 C   0  0
    5.9060   31.4341   55.2564 C   0  0
    7.7452   33.6155   51.4880 C   0  0
    2.6410   30.1361   47.5671 C   0  0
    1.9269   31.3245   47.5841 C   0  0
    5.6628   32.3401   56.2835 C   0  0
    4.4750   33.7423   54.7649 C   0  0
    4.9384   33.4894   56.0425 C   0  0
    6.7446   30.7474   52.6494 H   0  0
    4.8984   32.1985   49.8671 H   0  0
    5.4971   32.8966   51.2952 H   0  0
    7.3171   28.9330   54.4608 H   0  0
    3.5940   26.4348   52.3823 H   0  0
    3.8401   28.7732   48.6883 H   0  0
    5.1462   25.2904   53.9297 H   0  0
    1.1930   32.9434   48.7613 H   0  0
    4.2630   33.0228   52.8051 H   0  0
    6.4938   30.5657   55.4880 H   0  0
    7.3330   33.2553   52.4298 H   0  0
    7.1025   34.3971   51.0880 H   0  0
    8.7060   34.0789   51.6931 H   0  0
    2.7469   29.5781   46.6515 H   0  0
    1.5060   31.7348   46.6880 H   0  0
    6.0448   32.1580   57.2768 H   0  0
    3.9024   34.6348   54.5593 H   0  0
    4.7365   34.1679   56.8538 H   0  0
  1  2  1  0
  1  3  2  0
  1  6  1  0
  2  5  1  0
  2  8  1  0
  3  7  1  0
  4  5  1  0
  4  7  2  0
  4  9  1  0
  5 12  1  0
  5 30  1  0
  6 11  2  0
  6 17  1  0
  7 13  1  0
  8 10  1  0
  8 31  1  0
  8 32  1  0
  9 15  2  0
  9 33  1  0
 10 14  2  0
 10 19  1  0
 11 16  1  0
 11 21  1  0
 12 22  2  0
 12 23  1  0
 13 18  2  0
 13 34  1  0
 15 18  1  0
 15 20  1  0
 17 25  2  0
 17 35  1  0
 18 36  1  0
 19 24  1  0
 21 26  2  0
 21 37  1  0
 22 28  1  0
 22 38  1  0
 23 27  2  0
 23 39  1  0
 24 40  1  0
 24 41  1  0
 24 42  1  0
 25 26  1  0
 25 43  1  0
 26 44  1  0
 27 29  1  0
 27 45  1  0
 28 29  2  0
 28 46  1  0
 29 47  1  0
M  END
> <activity>
0

$$$$
ligand_309
  SciTegic10272118463D

 43 45  0  0  1  0            999 V2000
    4.6259   28.1190   51.6520 N   0  0
    6.7014   26.5152   53.1256 N   0  0
    7.9061   26.9356   53.7589 N   0  0
    8.2195   26.6641   54.9747 C   0  0
    7.5964   25.7425   55.8927 C   0  0
    7.6877   25.9047   57.2322 C   0  0
    4.9265   28.2789   53.0892 C   0  0
    5.3289   26.9619   51.0623 C   0  0
    6.7415   26.7805   51.6811 C   0  0
    5.4602   26.9919   53.7659 C   0  0
    3.8477   29.0223   50.9220 C   0  0
    6.7048   24.1580   55.0881 Br  0  0
    7.1007   25.0951   58.3175 C   0  0
    3.3444   28.7009   49.6572 C   0  0
    3.5488   30.2921   51.4266 C   0  0
    5.8144   24.5580   58.2402 C   0  0
    7.8282   24.9271   59.4950 C   0  0
    2.8096   31.2092   50.6880 C   0  0
    2.5979   29.6101   48.9182 C   0  0
    7.2729   24.2622   60.5807 C   0  0
    5.2550   23.8994   59.3276 C   0  0
    2.3339   30.8702   49.4312 C   0  0
    5.9814   23.7580   60.5008 C   0  0
    9.0883   27.1379   55.4241 H   0  0
    8.2368   26.7618   57.5971 H   0  0
    5.6430   29.0937   53.2044 H   0  0
    4.0125   28.5585   53.6093 H   0  0
    5.4610   27.1084   49.9925 H   0  0
    4.7143   26.0697   51.1959 H   0  0
    7.2739   25.9681   51.1860 H   0  0
    7.3151   27.6918   51.5001 H   0  0
    4.7209   26.1983   53.6490 H   0  0
    5.5672   27.1540   54.8380 H   0  0
    3.5063   27.7253   49.2296 H   0  0
    3.9070   30.5942   52.3990 H   0  0
    5.2117   24.6970   57.3551 H   0  0
    8.8267   25.3324   59.5849 H   0  0
    2.6055   32.1888   51.0949 H   0  0
    2.2224   29.3324   47.9440 H   0  0
    7.8419   24.1517   61.4920 H   0  0
    4.2490   23.5115   59.2661 H   0  0
    1.7579   31.5816   48.8572 H   0  0
    5.5412   23.2565   61.3508 H   0  0
  1  7  1  0
  1  8  1  0
  1 11  1  0
  2  3  1  0
  2  9  1  0
  2 10  1  0
  3  4  2  0
  4  5  1  0
  4 24  1  0
  5  6  2  0
  5 12  1  0
  6 13  1  0
  6 25  1  0
  7 10  1  0
  7 26  1  0
  7 27  1  0
  8  9  1  0
  8 28  1  0
  8 29  1  0
  9 30  1  0
  9 31  1  0
 10 32  1  0
 10 33  1  0
 11 14  2  0
 11 15  1  0
 13 16  2  0
 13 17  1  0
 14 19  1  0
 14 34  1  0
 15 18  2  0
 15 35  1  0
 16 21  1  0
 16 36  1  0
 17 20  2  0
 17 37  1  0
 18 22  1  0
 18 38  1  0
 19 22  2  0
 19 39  1  0
 20 23  1  0
 20 40  1  0
 21 23  2  0
 21 41  1  0
 22 42  1  0
 23 43  1  0
M  END
> <activity>
0

$$$$
ligand_310
  SciTegic10272118463D

 50 52  0  0  1  0            999 V2000
    4.9884   28.0519   51.0275 S   0  0
    5.8486   28.9768   52.2905 N   0  0
    6.0882   30.3508   52.1031 C   0  0
    7.2387   24.4731   60.0600 C   0  0
    6.7957   28.2684   53.1209 C   0  0
    7.9335   25.0951   59.0324 C   0  0
    5.9868   24.1620   59.5457 C   0  0
    5.9203   24.5579   58.2462 O   0  0
    7.1101   25.1374   57.9239 C   0  0
    6.1085   27.4057   54.1931 C   0  0
    3.5765   29.0501   50.5501 C   0  0
    4.5006   26.8164   51.6503 O   0  0
    5.9066   27.9768   49.8884 O   0  0
    6.4547   25.5675   55.6597 N   0  0
    7.2985   25.7093   56.6026 C   0  0
    6.9089   30.8612   51.0897 C   0  0
    6.7883   26.3052   54.5776 N   0  0
    5.0386   27.7640   54.6922 O   0  0
    2.2854   28.6951   50.9431 C   0  0
    3.7861   30.2101   49.8043 C   0  0
    7.9044   24.1577   61.8058 Br  0  0
    7.5044   30.0515   50.1852 F   0  0
    2.7173   31.0416   49.4893 C   0  0
    1.2139   29.5285   50.6304 C   0  0
    1.4343   30.7086   49.9142 C   0  0
    5.4976   31.2362   53.0020 C   0  0
    4.7399   23.5323   60.1152 C   0  0
    7.1232   32.2283   50.9860 C   0  0
    0.2818   31.6359   49.5876 C   0  0
    5.7169   32.6024   52.8946 C   0  0
    6.5311   33.0985   51.8879 C   0  0
    7.4692   27.6499   52.5262 H   0  0
    7.4292   28.9336   53.7081 H   0  0
    8.9399   25.4820   59.0953 H   0  0
    8.2273   26.2719   56.5267 H   0  0
    7.6186   26.0083   54.0932 H   0  0
    2.1131   27.7792   51.4878 H   0  0
    4.7799   30.4785   49.4835 H   0  0
    2.8905   31.9475   48.9245 H   0  0
    0.2192   29.2563   50.9505 H   0  0
    4.8675   30.8618   53.7984 H   0  0
    3.9386   24.2633   60.2199 H   0  0
    4.9106   23.1055   61.1045 H   0  0
    4.3684   22.7328   59.4748 H   0  0
    7.7665   32.6083   50.2052 H   0  0
   -0.5361   31.5161   50.2960 H   0  0
   -0.0927   31.4274   48.5863 H   0  0
    0.5963   32.6787   49.6208 H   0  0
    5.2618   33.2813   53.6014 H   0  0
    6.7161   34.1579   51.8163 H   0  0
  1  2  1  0
  1 11  1  0
  1 12  2  0
  1 13  2  0
  2  3  1  0
  2  5  1  0
  3 16  2  0
  3 26  1  0
  4  6  1  0
  4  7  2  0
  4 21  1  0
  5 10  1  0
  5 32  1  0
  5 33  1  0
  6  9  2  0
  6 34  1  0
  7  8  1  0
  7 27  1  0
  8  9  1  0
  9 15  1  0
 10 17  1  0
 10 18  2  0
 11 19  2  0
 11 20  1  0
 14 15  2  0
 14 17  1  0
 15 35  1  0
 16 22  1  0
 16 28  1  0
 17 36  1  0
 19 24  1  0
 19 37  1  0
 20 23  2  0
 20 38  1  0
 23 25  1  0
 23 39  1  0
 24 25  2  0
 24 40  1  0
 25 29  1  0
 26 30  2  0
 26 41  1  0
 27 42  1  0
 27 43  1  0
 27 44  1  0
 28 31  2  0
 28 45  1  0
 29 46  1  0
 29 47  1  0
 29 48  1  0
 30 31  1  0
 30 49  1  0
 31 50  1  0
M  END
> <activity>
0

$$$$
ligand_311
  SciTegic10272118463D

 45 46  0  0  1  0            999 V2000
    5.2463   28.0977   52.6794 C   0  0
    6.0436   26.9966   53.3336 C   0  0
    5.3575   29.4356   53.0982 C   0  0
    4.4470   27.8346   51.5518 C   0  0
    4.7461   30.4719   52.3752 C   0  0
    3.9731   30.1800   51.2498 C   0  0
    7.2656   26.5425   52.6125 C   0  0
    3.8119   28.8579   50.8520 C   0  0
    5.7107   26.4167   54.5319 C   0  0
    6.4246   25.3903   55.1388 N   0  0
    8.3008   26.1624   53.1733 O   0  0
    6.3108   29.8633   54.6878 Br  0  0
    4.8911   31.7742   52.7841 O   0  0
    4.3066   26.5584   51.0973 O   0  0
    3.1186   31.5620   50.2494 Br  0  0
    7.3105   25.5643   56.2921 C   0  0
    7.1171   26.5569   51.2759 O   0  0
    6.7970   25.1436   57.6721 C   0  0
    4.4771   26.7962   55.3415 C   0  0
    8.0867   25.9991   50.4163 C   0  0
    7.6545   25.3115   58.7592 C   0  0
    5.5491   24.5586   57.8918 C   0  0
    7.5393   25.9977   48.9968 C   0  0
    7.2763   24.9135   60.0359 C   0  0
    5.1692   24.1571   59.1675 C   0  0
    6.0297   24.3373   60.2408 C   0  0
    3.2112   28.6307   49.9833 H   0  0
    6.9619   24.8812   54.4494 H   0  0
    4.9657   31.8491   53.7381 H   0  0
    3.6685   26.4176   50.3837 H   0  0
    8.2055   24.9724   56.0964 H   0  0
    7.6540   26.6003   56.3291 H   0  0
    3.7665   25.9709   55.3092 H   0  0
    3.9635   27.6798   54.9631 H   0  0
    4.7257   26.9712   56.3872 H   0  0
    9.0192   26.5545   50.4897 H   0  0
    8.3075   24.9746   50.6907 H   0  0
    8.6324   25.7507   58.6175 H   0  0
    4.8504   24.4299   57.0859 H   0  0
    8.3057   25.6977   48.2923 H   0  0
    7.1950   26.9666   48.7002 H   0  0
    6.6755   25.3580   48.8833 H   0  0
    7.9535   25.0557   60.8657 H   0  0
    4.1981   23.7122   59.3265 H   0  0
    5.7280   24.0308   61.2321 H   0  0
  1  2  1  0
  1  3  2  0
  1  4  1  0
  2  7  1  0
  2  9  2  0
  3  5  1  0
  3 12  1  0
  4  8  2  0
  4 14  1  0
  5  6  2  0
  5 13  1  0
  6  8  1  0
  6 15  1  0
  7 11  2  0
  7 17  1  0
  8 27  1  0
  9 10  1  0
  9 19  1  0
 10 16  1  0
 10 28  1  0
 13 29  1  0
 14 30  1  0
 16 18  1  0
 16 31  1  0
 16 32  1  0
 17 20  1  0
 18 21  2  0
 18 22  1  0
 19 33  1  0
 19 34  1  0
 19 35  1  0
 20 23  1  0
 20 36  1  0
 20 37  1  0
 21 24  1  0
 21 38  1  0
 22 25  2  0
 22 39  1  0
 23 40  1  0
 23 41  1  0
 23 42  1  0
 24 26  2  0
 24 43  1  0
 25 26  1  0
 25 44  1  0
 26 45  1  0
M  END
> <activity>
0

$$$$
ligand_312
  SciTegic10272118463D

 29 32  0  0  1  0            999 V2000
    6.0996   26.7082   53.3781 N   0  0
    4.9015   26.3452   53.8857 C   0  0
    7.2131   26.4106   54.1558 C   0  0
    5.8252   27.3387   52.1770 C   0  0
    3.9050   26.5405   53.0892 N   0  0
    6.7642   25.9432   55.4592 C   0  0
    4.9912   25.7581   55.4894 S   0  0
    4.4222   27.2421   52.0506 C   0  0
    6.6332   27.9747   51.3211 N   0  0
    7.6522   25.7389   56.4624 C   0  0
    3.7891   27.8579   50.9667 C   0  0
    8.3496   26.5586   53.7488 O   0  0
    7.3803   25.2990   57.8520 C   0  0
    5.9855   28.5887   50.2906 C   0  0
    4.6031   28.5602   50.0811 C   0  0
    6.2838   24.5055   58.2041 C   0  0
    6.0662   24.1522   59.5297 C   0  0
    3.8321   29.4478   48.5845 Br  0  0
    4.5797   23.0601   59.9909 Br  0  0
    8.0351   25.3591   60.1895 C   0  0
    8.2504   25.7157   58.8627 C   0  0
    6.9395   24.5775   60.5191 C   0  0
    8.7016   25.9048   56.2551 H   0  0
    2.7191   27.8011   50.8292 H   0  0
    6.6075   29.1217   49.5910 H   0  0
    5.5910   24.1363   57.4684 H   0  0
    8.7060   25.6960   60.9637 H   0  0
    9.1061   26.3316   58.6279 H   0  0
    6.7660   24.2966   61.5447 H   0  0
  1  2  1  0
  1  3  1  0
  1  4  1  0
  2  5  2  0
  2  7  1  0
  3  6  1  0
  3 12  2  0
  4  8  2  0
  4  9  1  0
  5  8  1  0
  6  7  1  0
  6 10  2  0
  8 11  1  0
  9 14  2  0
 10 13  1  0
 10 23  1  0
 11 15  2  0
 11 24  1  0
 13 16  2  0
 13 21  1  0
 14 15  1  0
 14 25  1  0
 15 18  1  0
 16 17  1  0
 16 26  1  0
 17 19  1  0
 17 22  2  0
 20 21  2  0
 20 22  1  0
 20 27  1  0
 21 28  1  0
 22 29  1  0
M  END
> <activity>
0

$$$$
ligand_313
  SciTegic10272118463D

 51 53  0  0  1  0            999 V2000
    5.2956   28.4037   53.1618 N   0  0
    5.2108   26.7787   54.7173 C   0  0
    5.6888   29.5451   52.4434 C   0  0
    4.3060   27.5228   52.7704 C   0  0
    5.8999   27.9355   54.3165 C   0  0
    6.4754   25.4825   56.4650 C   0  0
    4.2833   26.5240   53.7140 C   0  0
    5.3423   25.9477   55.8944 C   0  0
    5.5968   30.8776   52.9724 C   0  0
    6.4862   24.6230   57.6364 C   0  0
    7.7395   25.8045   55.8992 C   0  0
    6.0537   31.9547   52.1658 C   0  0
    8.7060   26.1556   55.3745 N   0  0
    6.2238   29.3079   51.1827 C   0  0
    6.6505   31.6452   50.9226 C   0  0
    7.5060   24.0290   57.9820 O   0  0
    6.7060   30.3555   50.4368 C   0  0
    5.3212   24.5126   58.3100 N   0  0
    3.4491   27.7136   51.5323 C   0  0
    7.5060   32.9580   49.8880 Br  0  0
    7.1139   28.6725   54.8896 C   0  0
    5.1060   31.1990   54.2646 C   0  0
    5.9202   33.2838   52.6476 C   0  0
    6.2198   25.2681   60.9605 O   0  0
    5.0571   23.7136   59.5112 C   0  0
    6.0657   23.8854   60.6601 C   0  0
    7.5060   25.6004   61.4543 C   0  0
    5.0130   32.5071   54.7234 C   0  0
    5.3958   33.5523   53.9038 C   0  0
    3.6021   25.6851   53.6984 H   0  0
    4.3721   25.6828   56.2880 H   0  0
    6.3087   28.3022   50.7955 H   0  0
    7.1716   30.1741   49.4880 H   0  0
    4.5346   25.0491   57.9778 H   0  0
    2.6351   26.9896   51.4880 H   0  0
    4.0177   27.5887   50.6111 H   0  0
    2.9928   28.7035   51.5044 H   0  0
    7.9405   28.6199   54.1818 H   0  0
    7.5060   28.2980   55.8301 H   0  0
    6.9514   29.7252   55.0880 H   0  0
    4.7551   30.4058   54.9077 H   0  0
    6.2550   34.1116   52.0397 H   0  0
    4.9662   22.6615   59.2425 H   0  0
    4.0742   24.0109   59.8792 H   0  0
    7.0149   23.4209   60.3850 H   0  0
    5.7086   23.3580   61.5423 H   0  0
    7.5060   26.6341   61.7989 H   0  0
    8.2616   25.5066   60.6726 H   0  0
    7.7920   24.9580   62.2880 H   0  0
    4.6176   32.7077   55.7085 H   0  0
    5.3181   34.5732   54.2491 H   0  0
  1  3  1  0
  1  4  1  0
  1  5  1  0
  2  5  2  0
  2  7  1  0
  2  8  1  0
  3  9  1  0
  3 14  2  0
  4  7  2  0
  4 19  1  0
  5 21  1  0
  6  8  2  0
  6 10  1  0
  6 11  1  0
  7 30  1  0
  8 31  1  0
  9 12  2  0
  9 22  1  0
 10 16  2  0
 10 18  1  0
 11 13  3  0
 12 15  1  0
 12 23  1  0
 14 17  1  0
 14 32  1  0
 15 17  2  0
 15 20  1  0
 17 33  1  0
 18 25  1  0
 18 34  1  0
 19 35  1  0
 19 36  1  0
 19 37  1  0
 21 38  1  0
 21 39  1  0
 21 40  1  0
 22 28  2  0
 22 41  1  0
 23 29  2  0
 23 42  1  0
 24 26  1  0
 24 27  1  0
 25 26  1  0
 25 43  1  0
 25 44  1  0
 26 45  1  0
 26 46  1  0
 27 47  1  0
 27 48  1  0
 27 49  1  0
 28 29  1  0
 28 50  1  0
 29 51  1  0
M  END
> <activity>
0

$$$$
ligand_314
  SciTegic10272118463D

 43 46  0  0  1  0            999 V2000
    6.9637   27.4231   52.9524 C   0  0
    7.5031   26.3809   53.5600 N   0  0
    7.8028   26.7999   54.8036 N   0  0
    6.4336   27.4234   51.6054 C   0  0
    3.1154   30.0120   49.3940 C   0  0
    7.0530   28.5590   53.7847 C   0  0
    2.0430   30.9689   49.5056 C   0  0
    2.0802   30.2278   47.4001 N   0  0
    3.1048   29.6178   48.0709 C   0  0
    7.3922   25.4621   56.9598 C   0  0
    7.6097   28.1386   54.9681 C   0  0
    6.0361   25.1089   56.8134 C   0  0
    1.3850   31.0570   48.2474 C   0  0
    8.3091   25.8643   55.7916 C   0  0
    4.8522   28.6370   50.2918 N   0  0
    5.3477   24.5580   57.8956 C   0  0
    5.4866   28.3691   51.4433 N   0  0
    1.5598   31.7603   50.5525 C   0  0
    6.8308   26.6430   50.7329 O   0  0
    3.9962   29.5634   50.4607 C   0  0
    7.9859   25.3580   58.2243 C   0  0
    0.2637   31.8714   48.0410 C   0  0
    5.9716   24.4232   59.1316 C   0  0
    0.4204   32.5428   50.3689 C   0  0
    5.1531   25.3579   55.3468 Cl  0  0
    7.2843   24.8412   59.3064 C   0  0
   -0.2124   32.5909   49.1338 C   0  0
    5.1052   23.7535   60.4618 Cl  0  0
   -0.2412   33.6040   51.8043 Br  0  0
    6.7317   29.5655   53.5569 H   0  0
    1.8965   30.0593   46.4223 H   0  0
    3.7514   28.9273   47.5515 H   0  0
    7.8635   28.6422   55.8880 H   0  0
    9.2168   26.3227   56.1853 H   0  0
    8.6253   24.9581   55.2774 H   0  0
    4.3107   24.2737   57.7931 H   0  0
    5.1894   28.9200   52.2345 H   0  0
    2.0842   31.7673   51.4880 H   0  0
    3.8243   30.0967   51.3958 H   0  0
    9.0201   25.6377   58.3707 H   0  0
   -0.2395   31.9482   47.0924 H   0  0
    7.7640   24.7473   60.2703 H   0  0
   -1.0801   33.2234   49.0116 H   0  0
  1  2  2  0
  1  4  1  0
  1  6  1  0
  2  3  1  0
  3 11  1  0
  3 14  1  0
  4 17  1  0
  4 19  2  0
  5  7  1  0
  5  9  2  0
  5 20  1  0
  6 11  2  0
  6 30  1  0
  7 13  2  0
  7 18  1  0
  8  9  1  0
  8 13  1  0
  8 31  1  0
  9 32  1  0
 10 12  2  0
 10 14  1  0
 10 21  1  0
 11 33  1  0
 12 16  1  0
 12 25  1  0
 13 22  1  0
 14 34  1  0
 14 35  1  0
 15 17  1  0
 15 20  2  0
 16 23  2  0
 16 36  1  0
 17 37  1  0
 18 24  2  0
 18 38  1  0
 20 39  1  0
 21 26  2  0
 21 40  1  0
 22 27  2  0
 22 41  1  0
 23 26  1  0
 23 28  1  0
 24 27  1  0
 24 29  1  0
 26 42  1  0
 27 43  1  0
M  END
> <activity>
0

$$$$
ligand_315
  SciTegic10272118463D

 39 42  0  0  1  0            999 V2000
    6.1903   25.7853   55.8149 C   0  0
    5.6658   26.4180   54.5950 C   0  0
    6.0945   27.5603   54.1121 N   0  0
    7.5863   25.9850   56.2875 C   0  0
    5.3380   25.1107   56.6058 C   0  0
    7.9076   25.4746   57.5530 O   0  0
    5.3777   28.0007   53.0902 C   0  0
    5.6863   24.5581   57.8980 C   0  0
    6.9840   24.8002   58.3476 C   0  0
    4.3096   25.7584   53.7138 S   0  0
    4.3489   27.1514   52.6896 C   0  0
    5.6943   29.3273   52.4929 C   0  0
    7.3467   24.3754   59.6289 C   0  0
    6.1090   29.4816   51.1594 C   0  0
    6.4087   23.7580   60.4513 C   0  0
    5.5701   30.4465   53.3220 C   0  0
    4.7604   23.8840   58.6950 C   0  0
    8.5049   26.5538   55.6978 O   0  0
    5.1267   23.4911   59.9804 C   0  0
    6.4492   30.7543   50.6958 C   0  0
    9.1060   24.5802   60.2876 Br  0  0
    5.9051   31.7102   52.8492 C   0  0
    6.3681   31.8584   51.5443 C   0  0
    3.9062   22.5579   61.0927 Br  0  0
    6.2276   28.2911   50.2178 C   0  0
    6.7849   33.2270   51.0503 C   0  0
    4.3059   25.0554   56.3129 H   0  0
    3.6293   27.2854   51.8953 H   0  0
    6.6889   23.4397   61.4447 H   0  0
    5.2336   30.3337   54.3433 H   0  0
    3.7655   23.6869   58.3259 H   0  0
    6.7930   30.8905   49.6811 H   0  0
    5.8273   32.5659   53.5041 H   0  0
    7.1059   27.6947   50.4656 H   0  0
    6.3049   28.6082   49.1801 H   0  0
    5.3489   27.6509   50.2750 H   0  0
    5.9052   33.7577   50.6923 H   0  0
    7.5061   33.1502   50.2360 H   0  0
    7.2460   33.8147   51.8467 H   0  0
  1  2  1  0
  1  4  1  0
  1  5  2  0
  2  3  2  0
  2 10  1  0
  3  7  1  0
  4  6  1  0
  4 18  2  0
  5  8  1  0
  5 27  1  0
  6  9  1  0
  7 11  2  0
  7 12  1  0
  8  9  2  0
  8 17  1  0
  9 13  1  0
 10 11  1  0
 11 28  1  0
 12 14  2  0
 12 16  1  0
 13 15  2  0
 13 21  1  0
 14 20  1  0
 14 25  1  0
 15 19  1  0
 15 29  1  0
 16 22  2  0
 16 30  1  0
 17 19  2  0
 17 31  1  0
 19 24  1  0
 20 23  2  0
 20 32  1  0
 22 23  1  0
 22 33  1  0
 23 26  1  0
 25 34  1  0
 25 35  1  0
 25 36  1  0
 26 37  1  0
 26 38  1  0
 26 39  1  0
M  END
> <activity>
0

$$$$
ligand_316
  SciTegic10272118463D

 50 53  0  0  1  0            999 V2000
    6.4311   28.7889   53.5388 C   0  0
    6.0599   28.9654   52.2220 C   0  0
    6.0633   29.7983   54.3025 N   0  0
    7.1530   27.6612   53.8973 N   0  0
    6.9737   26.8983   51.7055 N   0  0
    5.4414   30.1988   52.1805 N   0  0
    7.3643   26.6337   53.0125 C   0  0
    6.3574   28.0178   51.1713 C   0  0
    5.5049   30.6597   53.4850 C   0  0
    5.0656   31.9085   53.8498 N   0  0
    4.9031   30.8920   51.0033 C   0  0
    7.9060   25.5812   53.3653 O   0  0
    6.1175   28.1741   49.9746 O   0  0
    3.5315   30.4309   50.5060 C   0  0
    7.7265   27.5597   55.2478 C   0  0
    7.2993   25.8244   50.7401 C   0  0
    5.9061   33.1217   57.2438 O   0  0
    5.6284   32.7187   54.9239 C   0  0
    2.7477   31.3321   49.7854 C   0  0
    1.5315   30.9216   49.2538 C   0  0
    5.0721   32.4270   56.3241 C   0  0  2  0  0  0
    0.4523   32.1531   48.2879 Br  0  0
    1.8559   28.7093   50.1550 C   0  0
    3.0628   29.1255   50.7005 C   0  0
    5.2364   33.1434   58.4897 C   0  0
    1.0991   29.6121   49.4228 C   0  0
    3.6890   33.0028   56.6488 C   0  0
    3.8388   33.5681   58.0574 C   0  0
    4.0799   32.0898   53.7351 H   0  0
    4.8563   31.9576   51.2323 H   0  0
    5.6256   30.7935   50.1923 H   0  0
    7.8461   28.5413   55.7079 H   0  0
    8.7136   27.0963   55.2355 H   0  0
    7.0805   26.9565   55.8853 H   0  0
    6.6428   24.9737   50.9178 H   0  0
    8.3278   25.4819   50.8599 H   0  0
    7.1999   26.1052   49.6903 H   0  0
    5.5096   33.7746   54.6779 H   0  0
    6.7027   32.5423   54.9609 H   0  0
    3.0826   32.3455   49.6229 H   0  0
    5.1066   31.3593   56.5395 H   0  0
    1.5172   27.6916   50.2897 H   0  0
    3.6330   28.4002   51.2572 H   0  0
    5.2451   32.1579   58.9566 H   0  0
    5.7036   33.8539   59.1692 H   0  0
    0.1626   29.2961   48.9905 H   0  0
    3.3970   33.7859   55.9479 H   0  0
    2.9344   32.2181   56.6006 H   0  0
    3.7646   34.6551   58.0361 H   0  0
    3.0888   33.1941   58.7505 H   0  0
  1  2  2  0
  1  3  1  0
  1  4  1  0
  2  6  1  0
  2  8  1  0
  3  9  2  0
  4  7  1  0
  4 15  1  0
  5  7  1  0
  5  8  1  0
  5 16  1  0
  6  9  1  0
  6 11  1  0
  7 12  2  0
  8 13  2  0
  9 10  1  0
 10 18  1  0
 10 29  1  0
 11 14  1  0
 11 30  1  0
 11 31  1  0
 14 19  2  0
 14 24  1  0
 15 32  1  0
 15 33  1  0
 15 34  1  0
 16 35  1  0
 16 36  1  0
 16 37  1  0
 17 21  1  0
 17 25  1  0
 18 21  1  0
 18 38  1  0
 18 39  1  0
 19 20  1  0
 19 40  1  0
 20 22  1  0
 20 26  2  0
 21 27  1  0
 21 41  1  0
 23 24  2  0
 23 26  1  0
 23 42  1  0
 24 43  1  0
 25 28  1  0
 25 44  1  0
 25 45  1  0
 26 46  1  0
 27 28  1  0
 27 47  1  0
 27 48  1  0
 28 49  1  0
 28 50  1  0
M  END
> <activity>
0

$$$$
ligand_317
  SciTegic10272118463D

 51 53  0  0  1  0            999 V2000
    5.2216   27.3219   52.4028 N   0  0
    5.1402   27.7067   51.1470 C   0  0
    5.9119   27.0784   50.2880 N   0  0
    4.2856   28.8486   50.7367 C   0  0
    6.1155   26.3786   52.3256 C   0  0
    2.7891   31.0758   49.9426 C   0  0
    6.5886   26.1592   51.0774 O   0  0
    2.8113   29.9213   49.1550 C   0  0
    3.5355   31.1305   51.1290 C   0  0
    6.1450   25.0346   57.1330 N   0  0
    3.5304   28.8084   49.5661 C   0  0
    4.2723   30.0040   51.5150 C   0  0
    6.8204   25.3398   56.0086 C   0  0
    6.6486   24.8046   58.4315 C   0  0
    8.0449   25.3589   55.9134 O   0  0
    5.8250   24.1580   59.3650 C   0  0
    1.9056   29.8554   47.4878 Br  0  0
    6.7330   25.5902   53.4420 C   0  0
    2.0531   32.1578   49.5292 O   0  0
    5.9610   25.6701   54.7848 C   0  0
    3.5067   32.2972   51.8681 O   0  0
    7.9048   25.2479   58.8445 C   0  0
    4.4569   23.6334   58.9822 C   0  0
    6.2608   23.9680   60.6734 C   0  0
    4.4884   32.5375   52.8805 C   0  0
    0.7153   32.1615   50.0065 C   0  0
    5.8908   32.7736   52.2926 C   0  0
    8.3345   25.0284   60.1398 C   0  0
    7.5149   24.3993   61.0606 C   0  0
    5.1420   24.9784   57.0589 H   0  0
    3.5058   27.9141   48.9648 H   0  0
    4.8631   30.0126   52.4173 H   0  0
    7.7569   25.9473   53.5477 H   0  0
    6.8068   24.5578   53.1174 H   0  0
    5.0814   25.0256   54.7487 H   0  0
    5.5976   26.6866   54.9521 H   0  0
    8.5732   25.7775   58.1852 H   0  0
    4.5408   22.7970   58.2895 H   0  0
    3.9058   24.4336   58.4994 H   0  0
    3.9012   23.2946   59.8547 H   0  0
    5.6287   23.4728   61.3961 H   0  0
    4.1889   33.4309   53.4282 H   0  0
    4.4933   31.7433   53.6275 H   0  0
    0.1789   33.0005   49.5656 H   0  0
    0.6839   32.2830   51.0879 H   0  0
    0.1836   31.2478   49.7393 H   0  0
    6.6113   32.9494   53.0874 H   0  0
    5.9060   33.6441   51.6359 H   0  0
    6.2476   31.9201   51.7156 H   0  0
    9.3181   25.3583   60.4219 H   0  0
    7.8709   24.2447   62.0683 H   0  0
  1  2  1  0
  1  5  2  0
  2  3  2  0
  2  4  1  0
  3  7  1  0
  4 11  1  0
  4 12  2  0
  5  7  1  0
  5 18  1  0
  6  8  1  0
  6  9  2  0
  6 19  1  0
  8 11  2  0
  8 17  1  0
  9 12  1  0
  9 21  1  0
 10 13  1  0
 10 14  1  0
 10 30  1  0
 11 31  1  0
 12 32  1  0
 13 15  2  0
 13 20  1  0
 14 16  2  0
 14 22  1  0
 16 23  1  0
 16 24  1  0
 18 20  1  0
 18 33  1  0
 18 34  1  0
 19 26  1  0
 20 35  1  0
 20 36  1  0
 21 25  1  0
 22 28  2  0
 22 37  1  0
 23 38  1  0
 23 39  1  0
 23 40  1  0
 24 29  2  0
 24 41  1  0
 25 27  1  0
 25 42  1  0
 25 43  1  0
 26 44  1  0
 26 45  1  0
 26 46  1  0
 27 47  1  0
 27 48  1  0
 27 49  1  0
 28 29  1  0
 28 50  1  0
 29 51  1  0
M  END
> <activity>
0

$$$$
ligand_318
  SciTegic10272118463D

 37 38  0  0  1  0            999 V2000
    5.6644   26.1663   54.1198 C   0  0
    7.9044   26.1293   53.9803 N   0  0
    5.9878   26.5027   52.8223 C   0  0
    6.8791   25.9843   54.8019 C   0  0
    7.3537   26.4196   52.7936 N   0  0
    6.1922   29.0389   51.3121 C   0  0
    5.2225   28.1069   51.1430 C   0  0
    5.2252   26.8596   51.7384 N   0  0
    6.1921   30.3571   50.7249 C   0  0
    7.0454   25.6678   56.2548 C   0  0
    6.3100   30.5565   49.5143 O   0  0
    6.0465   24.9399   56.9097 C   0  0
    8.1700   26.0875   56.9739 C   0  0
    7.3218   24.9900   58.9464 C   0  0
    6.0532   31.2998   51.6763 O   0  0
    6.1957   24.5718   58.2440 C   0  0
    8.3030   25.7571   58.3214 C   0  0
    7.5070   24.5284   60.7814 Br  0  0
    3.9564   28.3097   50.3124 C   0  0
    6.0624   32.6851   51.3697 C   0  0
    7.4981   33.2116   51.3633 C   0  0
    4.6711   26.1134   54.5395 H   0  0
    7.9056   26.5942   51.9653 H   0  0
    7.0448   28.8512   51.9445 H   0  0
    4.3996   26.3058   51.5595 H   0  0
    5.1618   24.6223   56.3786 H   0  0
    8.9446   26.6633   56.4893 H   0  0
    5.4305   23.9905   58.7379 H   0  0
    9.1652   26.0870   58.8817 H   0  0
    3.0677   28.1669   50.9299 H   0  0
    3.9055   27.5993   49.4885 H   0  0
    3.8809   29.3063   49.8773 H   0  0
    5.5020   33.2015   52.1488 H   0  0
    5.5563   32.8938   50.4251 H   0  0
    7.5055   34.2962   51.2680 H   0  0
    8.0717   32.7898   50.5372 H   0  0
    8.0092   32.9552   52.2879 H   0  0
  1  3  2  0
  1  4  1  0
  1 22  1  0
  2  4  2  0
  2  5  1  0
  3  5  1  0
  3  8  1  0
  4 10  1  0
  5 23  1  0
  6  7  2  0
  6  9  1  0
  6 24  1  0
  7  8  1  0
  7 19  1  0
  8 25  1  0
  9 11  2  0
  9 15  1  0
 10 12  2  0
 10 13  1  0
 12 16  1  0
 12 26  1  0
 13 17  2  0
 13 27  1  0
 14 16  2  0
 14 17  1  0
 14 18  1  0
 15 20  1  0
 16 28  1  0
 17 29  1  0
 19 30  1  0
 19 31  1  0
 19 32  1  0
 20 21  1  0
 20 33  1  0
 20 34  1  0
 21 35  1  0
 21 36  1  0
 21 37  1  0
M  END
> <activity>
0

$$$$
ligand_319
  SciTegic10272118463D

 42 44  0  0  1  0            999 V2000
    6.2355   27.3666   52.2995 C   0  0
    4.2096   28.0845   51.2731 C   0  0  2  0  0  0
    6.0003   26.5074   51.3964 N   0  0
    5.2404   28.5395   52.3455 C   0  0  2  0  0  0
    4.8973   26.9366   50.6880 N   0  0
    3.8504   29.1075   50.1860 C   0  0
    5.8127   29.9718   52.2560 C   0  0
    7.3293   27.1486   53.2308 C   0  0
    5.3614   30.9527   53.1402 C   0  0
    4.6634   29.3598   49.2897 O   0  0
    2.5669   29.8721   50.2605 C   0  0
    8.3059   26.4420   52.9634 O   0  0
    5.7577   32.2765   52.9820 C   0  0
    7.1505   27.7607   54.4206 O   0  0
    5.1060   33.6050   54.1826 Br  0  0
    6.7075   30.3372   51.2465 C   0  0
    7.1062   31.6606   51.0830 C   0  0
    2.4145   31.0469   49.5170 C   0  0
    1.4893   29.4276   51.0288 C   0  0
    6.6208   32.6315   51.9497 C   0  0
    8.0819   27.5802   55.4831 C   0  0
    7.9068   26.2253   56.1920 C   0  0
    1.2332   31.7719   49.5628 C   0  0
    0.3143   30.1584   51.0810 C   0  0
    0.1860   31.3360   50.3566 C   0  0
    3.3219   27.6924   51.7615 H   0  0
    4.7091   28.4748   53.2979 H   0  0
    4.3349   26.1448   50.3890 H   0  0
    4.6905   30.6973   53.9441 H   0  0
    7.0673   29.5894   50.5555 H   0  0
    7.7876   31.9311   50.2895 H   0  0
    3.2146   31.4200   48.8967 H   0  0
    1.5203   28.5150   51.6001 H   0  0
    6.9257   33.6617   51.8335 H   0  0
    9.1058   27.6999   55.1263 H   0  0
    7.9093   28.3850   56.1967 H   0  0
    8.5858   26.1460   57.0417 H   0  0
    8.1181   25.3900   55.5240 H   0  0
    6.8897   26.1063   56.5671 H   0  0
    1.1347   32.6802   48.9861 H   0  0
   -0.4950   29.8071   51.6952 H   0  0
   -0.7315   31.9043   50.4033 H   0  0
  1  3  2  0
  1  4  1  0
  1  8  1  0
  2  4  1  0
  2  5  1  0
  2  6  1  0
  2 26  1  0
  3  5  1  0
  4  7  1  0
  4 27  1  0
  5 28  1  0
  6 10  2  0
  6 11  1  0
  7  9  2  0
  7 16  1  0
  8 12  2  0
  8 14  1  0
  9 13  1  0
  9 29  1  0
 11 18  2  0
 11 19  1  0
 13 15  1  0
 13 20  2  0
 14 21  1  0
 16 17  2  0
 16 30  1  0
 17 20  1  0
 17 31  1  0
 18 23  1  0
 18 32  1  0
 19 24  2  0
 19 33  1  0
 20 34  1  0
 21 22  1  0
 21 35  1  0
 21 36  1  0
 22 37  1  0
 22 38  1  0
 22 39  1  0
 23 25  2  0
 23 40  1  0
 24 25  1  0
 24 41  1  0
 25 42  1  0
M  END
> <activity>
0

$$$$
ligand_320
  SciTegic10272118463D

 49 54  0  0  1  0            999 V2000
    5.7863   29.1897   53.3813 C   0  0
    5.3201   28.1494   52.5943 C   0  0
    5.2170   30.4017   53.0314 N   0  0
    4.4701   30.1662   51.8878 C   0  0
    4.5244   28.7731   51.5785 C   0  0
    6.7059   29.0550   54.3675 N   0  0
    5.7058   26.7682   52.9169 C   0  0
    6.6041   26.7415   53.9899 N   0  0
    3.7845   31.0540   51.1635 N   0  0
    3.8937   28.3271   50.4854 N   0  0
    7.1460   27.8762   54.5859 C   0  0
    5.3744   31.6395   53.6963 C   0  0
    3.1738   30.6045   50.0418 C   0  0
    3.2396   29.2244   49.6837 C   0  0
    5.2651   31.6915   55.0871 C   0  0
    6.9471   25.4128   54.5705 C   0  0
    5.2908   25.7584   52.3505 O   0  0
    7.5060   24.1650   56.6512 O   0  0
    5.2798   32.9130   55.7429 C   0  0
    6.9275   25.3536   56.1269 C   0  0  2  0  0  0
    5.4862   32.8227   52.9685 C   0  0
    5.1562   32.9873   57.6420 Br  0  0
    5.4677   34.0425   53.6225 C   0  0
    2.4995   31.5176   49.2062 C   0  0
    2.6484   28.8200   48.4702 C   0  0
    7.2235   24.2108   58.0475 C   0  0
    5.3694   34.0824   55.0031 C   0  0
    5.5394   25.3570   56.7735 C   0  0
    5.7174   24.4822   58.0108 C   0  0
    1.9477   31.0919   48.0051 C   0  0
    2.0392   29.7568   47.6374 C   0  0
    7.9626   27.7575   55.2911 H   0  0
    5.1353   30.7890   55.6553 H   0  0
    7.9424   25.1407   54.2234 H   0  0
    6.2920   24.6218   54.1989 H   0  0
    7.5252   26.1610   56.5510 H   0  0
    5.5518   32.8097   51.8902 H   0  0
    5.5061   34.9579   53.0571 H   0  0
    2.4497   32.5567   49.4941 H   0  0
    2.7068   27.7781   48.1837 H   0  0
    7.7708   25.0233   58.5327 H   0  0
    7.5044   23.2973   58.5632 H   0  0
    5.3767   35.0362   55.4880 H   0  0
    4.7768   24.9583   56.1055 H   0  0
    5.2319   26.3710   57.0218 H   0  0
    5.1665   23.5483   57.8912 H   0  0
    5.3624   24.9579   58.9256 H   0  0
    1.4642   31.8026   47.3504 H   0  0
    1.6352   29.4452   46.6901 H   0  0
  1  2  2  0
  1  3  1  0
  1  6  1  0
  2  5  1  0
  2  7  1  0
  3  4  1  0
  3 12  1  0
  4  5  1  0
  4  9  2  0
  5 10  2  0
  6 11  2  0
  7  8  1  0
  7 17  2  0
  8 11  1  0
  8 16  1  0
  9 13  1  0
 10 14  1  0
 11 32  1  0
 12 15  2  0
 12 21  1  0
 13 14  2  0
 13 24  1  0
 14 25  1  0
 15 19  1  0
 15 33  1  0
 16 20  1  0
 16 34  1  0
 16 35  1  0
 18 20  1  0
 18 26  1  0
 19 22  1  0
 19 27  2  0
 20 28  1  0
 20 36  1  0
 21 23  2  0
 21 37  1  0
 23 27  1  0
 23 38  1  0
 24 30  2  0
 24 39  1  0
 25 31  2  0
 25 40  1  0
 26 29  1  0
 26 41  1  0
 26 42  1  0
 27 43  1  0
 28 29  1  0
 28 44  1  0
 28 45  1  0
 29 46  1  0
 29 47  1  0
 30 31  1  0
 30 48  1  0
 31 49  1  0
M  END
> <activity>
0

$$$$
ligand_321
  SciTegic10272118463D

 54 57  0  0  1  0            999 V2000
    4.7060   30.2900   53.2380 N   0  3  2  0  0  0
    5.1438   28.9247   52.6292 C   0  0  2  0  0  0
    3.2429   30.5800   51.1843 C   0  0
    4.0668   28.3636   51.8104 N   0  0
    4.2282   31.2766   52.1250 C   0  0  2  0  0  0
    3.1846   29.1802   51.0842 C   0  0
    5.7376   30.8840   54.2544 C   0  0
    5.6458   27.9404   53.6971 C   0  0
    2.3610   31.3288   50.3975 C   0  0
    5.3050   32.0013   55.2290 C   0  0
    5.4423   31.8326   51.4195 C   0  0
    2.2479   28.5571   50.2624 C   0  0
    5.9060   32.1580   56.2891 O   0  0
    4.7536   27.0921   54.3638 C   0  0
    7.0142   27.8459   53.9774 C   0  0
    1.4541   30.7050   49.5450 C   0  0
    6.5727   26.1100   55.6065 C   0  0
    1.3858   29.3180   49.4830 C   0  0
    7.4760   26.9434   54.9339 C   0  0
    5.2155   26.1770   55.3033 C   0  0
    4.3060   32.7870   54.8136 O   0  0
    0.3063   31.7589   48.4523 Br  0  0
    6.9605   25.1995   56.5636 O   0  0
    6.0570   32.9799   51.9147 C   0  0
    5.9975   31.1442   50.3475 C   0  0
    3.8526   33.8683   55.6157 C   0  0
    7.9144   25.6385   57.5252 C   0  0
    7.2357   31.5123   49.8880 C   0  0
    7.3139   33.3286   51.4666 C   0  0
    7.9060   32.5580   50.4834 C   0  0
    3.8633   30.0774   53.7657 H   0  0
    5.9957   29.1523   51.9882 H   0  0
    3.8695   27.3839   51.9584 H   0  0
    3.7082   32.0903   52.6218 H   0  0
    6.1135   30.0603   54.8551 H   0  0
    6.5456   31.2319   53.6269 H   0  0
    2.3901   32.4083   50.4356 H   0  0
    2.1982   27.4794   50.2125 H   0  0
    3.6982   27.1336   54.1503 H   0  0
    7.7226   28.4801   53.4647 H   0  0
    0.6728   28.8327   48.8323 H   0  0
    8.5328   26.8931   55.1454 H   0  0
    4.5163   25.5316   55.8156 H   0  0
    5.6150   33.5553   52.7142 H   0  0
    5.5215   30.2725   49.9221 H   0  0
    3.4355   33.5087   56.5575 H   0  0
    3.0751   34.4218   55.0890 H   0  0
    4.6682   34.5580   55.8366 H   0  0
    8.0259   24.8752   58.2954 H   0  0
    7.5935   26.5577   58.0176 H   0  0
    8.8978   25.8013   57.0868 H   0  0
    7.7126   30.9579   49.1029 H   0  0
    7.8414   34.1662   51.8986 H   0  0
    8.9119   32.7598   50.1687 H   0  0
  1  2  1  0
  1  5  1  0
  1  7  1  0
  1 31  1  0
  2  4  1  0
  2  8  1  0
  2 32  1  0
  3  5  1  0
  3  6  2  0
  3  9  1  0
  4  6  1  0
  4 33  1  0
  5 11  1  0
  5 34  1  0
  6 12  1  0
  7 10  1  0
  7 35  1  0
  7 36  1  0
  8 14  2  0
  8 15  1  0
  9 16  2  0
  9 37  1  0
 10 13  2  0
 10 21  1  0
 11 24  2  0
 11 25  1  0
 12 18  2  0
 12 38  1  0
 14 20  1  0
 14 39  1  0
 15 19  2  0
 15 40  1  0
 16 18  1  0
 16 22  1  0
 17 19  1  0
 17 20  2  0
 17 23  1  0
 18 41  1  0
 19 42  1  0
 20 43  1  0
 21 26  1  0
 23 27  1  0
 24 29  1  0
 24 44  1  0
 25 28  2  0
 25 45  1  0
 26 46  1  0
 26 47  1  0
 26 48  1  0
 27 49  1  0
 27 50  1  0
 27 51  1  0
 28 30  1  0
 28 52  1  0
 29 30  2  0
 29 53  1  0
 30 54  1  0
M  CHG  1   1   1
M  END
> <activity>
0

$$$$
ligand_322
  SciTegic10272118463D

 31 34  0  0  1  0            999 V2000
    5.0024   28.9117   52.1498 C   0  0
    6.0658   26.5317   54.6669 C   0  0
    4.5388   28.3025   50.9911 C   0  0
    4.7092   30.6360   52.1657 S   0  0
    5.3974   25.7038   55.4187 N   0  0
    7.7200   26.8693   55.1898 S   0  0
    3.7807   29.1939   50.1656 C   0  0
    7.3847   25.9332   56.6387 C   0  0
    3.7661   30.5176   50.6911 C   0  0
    6.0854   25.3709   56.5382 C   0  0
    5.5288   27.0609   53.5393 N   0  0
    5.6651   28.3046   53.2981 C   0  0
    8.1674   25.7376   57.7797 C   0  0
    5.5815   24.5709   57.5724 C   0  0
    4.7060   26.9733   50.6865 O   0  0
    7.6513   24.9254   58.7898 C   0  0
    6.3812   24.3613   58.6949 C   0  0
    8.7065   24.5580   60.3194 Br  0  0
    3.0728   28.9580   48.9724 C   0  0
    3.0620   31.5512   50.0558 C   0  0
    2.3677   29.9870   48.3512 C   0  0
    2.3541   31.2665   48.8922 C   0  0
    6.2263   29.0042   53.9147 H   0  0
    9.1530   26.1695   57.8670 H   0  0
    4.5887   24.1542   57.5170 H   0  0
    3.9014   26.5843   50.3232 H   0  0
    6.0098   23.7536   59.5070 H   0  0
    3.0585   27.9698   48.5337 H   0  0
    3.0580   32.5539   50.4618 H   0  0
    1.8235   29.7862   47.4395 H   0  0
    1.8039   32.0518   48.3933 H   0  0
  1  3  2  0
  1  4  1  0
  1 12  1  0
  2  5  2  0
  2  6  1  0
  2 11  1  0
  3  7  1  0
  3 15  1  0
  4  9  1  0
  5 10  1  0
  6  8  1  0
  7  9  2  0
  7 19  1  0
  8 10  2  0
  8 13  1  0
  9 20  1  0
 10 14  1  0
 11 12  2  0
 12 23  1  0
 13 16  2  0
 13 24  1  0
 14 17  2  0
 14 25  1  0
 15 26  1  0
 16 17  1  0
 16 18  1  0
 17 27  1  0
 19 21  2  0
 19 28  1  0
 20 22  2  0
 20 29  1  0
 21 22  1  0
 21 30  1  0
 22 31  1  0
M  END
> <activity>
0

$$$$
ligand_323
  SciTegic10272118463D

 32 33  0  0  1  0            999 V2000
    6.9236   26.1669   54.2099 C   0  0
    7.3448   26.6894   52.9077 C   0  0
    5.6551   26.0452   54.6773 C   0  0
    5.9278   24.1581   59.2372 C   0  0
    5.3317   24.5125   58.0314 C   0  0
    5.2759   25.6550   55.9469 N   0  0
    6.6103   27.8153   52.2526 C   0  0
    6.0058   25.2990   57.0944 C   0  0
    7.2282   24.5864   59.5128 C   0  0
    8.3052   26.1581   52.3495 O   0  0
    5.9206   28.9013   50.2025 N   0  0
    7.9059   25.3880   58.5964 C   0  0
    4.9316   23.1022   60.4747 Br  0  0
    7.2947   25.7576   57.3989 C   0  0
    8.0128   24.1569   60.9929 Cl  0  0
    6.5419   27.8905   50.8569 C   0  0
    4.3920   26.2765   53.8489 C   0  0
    6.0472   28.8592   53.0014 C   0  0
    5.3600   29.8804   50.9525 C   0  0
    5.4024   29.9042   52.3447 C   0  0
    7.7555   25.8592   54.8165 H   0  0
    4.3189   24.1836   57.8489 H   0  0
    4.2877   25.4876   56.0796 H   0  0
    8.9006   25.7444   58.8255 H   0  0
    7.8224   26.4415   56.7562 H   0  0
    6.9918   27.1304   50.2327 H   0  0
    4.5764   26.2460   52.7762 H   0  0
    3.9422   27.2395   54.0937 H   0  0
    3.6437   25.5035   54.0338 H   0  0
    6.0972   28.8655   54.0815 H   0  0
    4.8661   30.6726   50.4080 H   0  0
    4.9459   30.7098   52.9015 H   0  0
  1  2  1  0
  1  3  2  0
  1 21  1  0
  2  7  1  0
  2 10  2  0
  3  6  1  0
  3 17  1  0
  4  5  2  0
  4  9  1  0
  4 13  1  0
  5  8  1  0
  5 22  1  0
  6  8  1  0
  6 23  1  0
  7 16  2  0
  7 18  1  0
  8 14  2  0
  9 12  2  0
  9 15  1  0
 11 16  1  0
 11 19  2  0
 12 14  1  0
 12 24  1  0
 14 25  1  0
 16 26  1  0
 17 27  1  0
 17 28  1  0
 17 29  1  0
 18 20  2  0
 18 30  1  0
 19 20  1  0
 19 31  1  0
 20 32  1  0
M  END
> <activity>
0

$$$$
ligand_324
  SciTegic10272118463D

 49 52  0  0  1  0            999 V2000
    4.9810   29.9368   51.1687 N   0  0
    4.7132   28.8937   50.3126 C   0  0
    4.0651   30.9599   51.0881 C   0  0
    2.9176   30.2410   50.4216 C   0  0  2  0  0  0
    3.7126   29.5290   49.3780 C   0  0  2  0  0  0
    2.5740   28.9653   48.4755 C   0  0  1  0  0  0
    1.6760   30.7076   49.6223 C   0  0  2  0  0  0
    6.0210   29.8508   52.1940 C   0  0
    1.2598   29.2677   49.2299 C   0  0
    6.9439   27.1776   54.2716 N   0  0
    6.6409   28.4876   54.2880 C   0  0
    7.0841   26.4584   55.4628 C   0  0
    5.5396   28.9430   53.3423 C   0  0
    4.1033   32.1126   51.5133 O   0  0
    5.1865   27.7580   50.2880 O   0  0
    6.0021   25.6841   55.9102 C   0  0
    1.9416   31.2978   48.2058 C   0  0
    2.3843   30.0484   47.3787 C   0  0
    6.1048   25.0001   57.1232 C   0  0
    7.1060   29.2905   55.0880 O   0  0
    8.2482   26.5580   56.2258 C   0  0
    7.2486   25.1376   57.9023 C   0  0
    8.3060   25.9275   57.4651 C   0  0
    7.3625   24.2601   59.5879 Br  0  0
    4.6972   25.6217   55.1302 C   0  0
    4.7667   24.6478   53.9505 C   0  0
    2.5191   29.6276   51.2472 H   0  0
    4.3483   30.1580   48.7419 H   0  0
    2.7060   27.9442   48.1121 H   0  0
    0.9382   31.2492   50.2159 H   0  0
    6.2654   30.8454   52.5736 H   0  0
    6.9283   29.4502   51.7372 H   0  0
    1.0762   28.5854   50.0644 H   0  0
    0.3608   29.2246   48.6084 H   0  0
    6.5051   26.6499   53.5327 H   0  0
    5.0439   28.0546   52.9472 H   0  0
    4.7754   29.4591   53.9250 H   0  0
    2.7060   32.0745   48.2376 H   0  0
    1.0401   31.7432   47.7824 H   0  0
    3.2787   30.2250   46.7791 H   0  0
    1.5968   29.7580   46.6880 H   0  0
    5.2824   24.4016   57.4881 H   0  0
    9.0730   27.1681   55.8880 H   0  0
    9.1778   26.0450   58.0892 H   0  0
    3.9060   25.3580   55.8195 H   0  0
    4.4131   26.6153   54.7850 H   0  0
    3.8166   24.6030   53.4244 H   0  0
    5.0171   23.6409   54.2879 H   0  0
    5.5199   24.9580   53.2257 H   0  0
  1  2  1  0
  1  3  1  0
  1  8  1  0
  2  5  1  0
  2 15  2  0
  3  4  1  0
  3 14  2  0
  4  5  1  0
  4  7  1  0
  4 27  1  0
  5  6  1  0
  5 28  1  0
  6  9  1  0
  6 18  1  0
  6 29  1  0
  7  9  1  0
  7 17  1  0
  7 30  1  0
  8 13  1  0
  8 31  1  0
  8 32  1  0
  9 33  1  0
  9 34  1  0
 10 11  1  0
 10 12  1  0
 10 35  1  0
 11 13  1  0
 11 20  2  0
 12 16  2  0
 12 21  1  0
 13 36  1  0
 13 37  1  0
 16 19  1  0
 16 25  1  0
 17 18  1  0
 17 38  1  0
 17 39  1  0
 18 40  1  0
 18 41  1  0
 19 22  2  0
 19 42  1  0
 21 23  2  0
 21 43  1  0
 22 23  1  0
 22 24  1  0
 23 44  1  0
 25 26  1  0
 25 45  1  0
 25 46  1  0
 26 47  1  0
 26 48  1  0
 26 49  1  0
M  END
> <activity>
0

$$$$
ligand_325
  SciTegic10272118463D

 62 64  0  0  1  0            999 V2000
    6.0364   27.2219   53.0078 C   0  0
    3.8994   27.2741   51.8879 C   0  0
    4.2217   28.4918   51.2956 C   0  0
    4.7978   26.6322   52.7315 C   0  0
    6.3556   28.4554   52.4198 C   0  0
    5.4591   29.0985   51.5468 C   0  0
    2.5765   29.9706   48.3668 C   0  0
    6.5400   26.2388   55.3277 N   0  3
    7.0533   26.5236   53.8985 C   0  0
    3.2760   29.1057   50.5154 O   0  0
    2.1338   31.0186   49.0800 N   0  0
    2.3228   29.8069   47.1745 O   0  0
    7.5356   25.5705   56.3057 C   0  0  2  0  0  0
    3.4333   28.9339   49.1060 C   0  0
    6.8675   25.0993   57.6154 C   0  0
    4.3025   24.9583   53.4935 Br  0  0
    1.1879   32.0449   48.6350 C   0  0
    5.7234   30.2929   50.8989 O   0  0
    0.0499   32.3319   49.6174 C   0  0
    7.5243   25.1268   58.8545 C   0  0
    5.5729   24.5845   57.5821 C   0  0
    8.7062   26.5579   56.4802 C   0  0
    6.8783   31.0484   51.2580 C   0  0
   -0.2439   31.4863   50.6873 C   0  0
   -0.7155   33.4838   49.4467 C   0  0
    6.9639   32.2942   50.3762 C   0  0
    4.9449   24.1228   58.7323 C   0  0
    6.8987   24.6649   60.0074 C   0  0
   -1.2939   31.7762   51.5522 C   0  0
   -1.7642   33.7755   50.3089 C   0  0
   -2.0562   32.9196   51.3616 C   0  0
    5.6086   24.1596   59.9486 C   0  0
    2.9361   26.8294   51.6788 H   0  0
    7.3138   28.8973   52.6444 H   0  0
    6.2180   27.1048   55.7365 H   0  0
    5.7277   25.6438   55.2410 H   0  0
    7.3320   25.5509   53.4846 H   0  0
    7.9457   27.1359   54.0021 H   0  0
    2.4976   31.1206   50.0172 H   0  0
    7.8696   24.6717   55.7838 H   0  0
    3.1017   27.9323   48.8306 H   0  0
    4.4695   29.0526   48.7869 H   0  0
    0.7471   31.7964   47.6662 H   0  0
    1.7615   32.9580   48.4666 H   0  0
    8.5338   25.4899   58.9616 H   0  0
    5.0279   24.5559   56.6550 H   0  0
    9.4075   26.2803   57.2650 H   0  0
    8.3077   27.5515   56.6880 H   0  0
    9.3150   26.6330   55.5790 H   0  0
    6.7986   31.3509   52.2998 H   0  0
    7.7892   30.4625   51.1391 H   0  0
    0.3216   30.5797   50.8515 H   0  0
   -0.4975   34.1642   48.6391 H   0  0
    7.8064   32.9206   50.6734 H   0  0
    6.0542   32.8914   50.4594 H   0  0
    7.1061   32.0249   49.3291 H   0  0
    3.9350   23.7432   58.6800 H   0  0
    7.4247   24.6997   60.9518 H   0  0
   -1.5169   31.1118   52.3732 H   0  0
   -2.3516   34.6700   50.1601 H   0  0
   -2.8730   33.1460   52.0319 H   0  0
    5.1190   23.8117   60.8478 H   0  0
  1  4  1  0
  1  5  2  0
  1  9  1  0
  2  3  1  0
  2  4  2  0
  2 33  1  0
  3  6  2  0
  3 10  1  0
  4 16  1  0
  5  6  1  0
  5 34  1  0
  6 18  1  0
  7 11  1  0
  7 12  2  0
  7 14  1  0
  8  9  1  0
  8 13  1  0
  8 35  1  0
  8 36  1  0
  9 37  1  0
  9 38  1  0
 10 14  1  0
 11 17  1  0
 11 39  1  0
 13 15  1  0
 13 22  1  0
 13 40  1  0
 14 41  1  0
 14 42  1  0
 15 20  2  0
 15 21  1  0
 17 19  1  0
 17 43  1  0
 17 44  1  0
 18 23  1  0
 19 24  2  0
 19 25  1  0
 20 28  1  0
 20 45  1  0
 21 27  2  0
 21 46  1  0
 22 47  1  0
 22 48  1  0
 22 49  1  0
 23 26  1  0
 23 50  1  0
 23 51  1  0
 24 29  1  0
 24 52  1  0
 25 30  2  0
 25 53  1  0
 26 54  1  0
 26 55  1  0
 26 56  1  0
 27 32  1  0
 27 57  1  0
 28 32  2  0
 28 58  1  0
 29 31  2  0
 29 59  1  0
 30 31  1  0
 30 60  1  0
 31 61  1  0
 32 62  1  0
M  CHG  1   8   1
M  END
> <activity>
0

$$$$
ligand_326
  SciTegic10272118463D

 52 55  0  0  1  0            999 V2000
    4.6319   28.9921   51.3716 N   0  0
    6.7260   25.7576   53.3297 N   0  0
    7.8168   26.1451   54.0076 N   0  0
    5.0120   30.0095   52.2254 C   0  0
    5.6940   25.3527   54.1547 C   0  0
    6.2304   25.4384   55.4313 C   0  0
    4.5400   31.2183   51.7449 C   0  0
    3.7382   30.9121   50.6013 C   0  0
    3.8406   29.5141   50.3583 C   0  0
    7.5248   25.9466   55.2736 C   0  0
    6.7697   25.8245   51.8664 C   0  0
    4.9399   27.5868   51.5785 C   0  0
    3.1846   28.9070   49.2764 C   0  0
    2.9367   31.6835   49.7576 C   0  0
    6.4258   27.2277   51.3323 C   0  0  2  0  0  0
    5.3943   24.9595   57.0763 Br  0  0
    2.4299   29.7257   48.4366 C   0  0
    2.2980   31.0925   48.6690 C   0  0
    4.3277   24.8914   53.6769 C   0  0
    5.8316   29.8363   53.5016 C   0  0
    4.8198   32.5543   52.4142 C   0  0
    8.5385   26.2463   56.3471 C   0  0
    6.7059   27.2347   49.9432 O   0  0
    1.4683   31.9492   47.7359 C   0  0
    5.7057   31.1215   54.3520 C   0  0
    5.8971   32.3956   53.5064 C   0  0
    6.0767   25.0912   51.4591 H   0  0
    7.7700   25.5304   51.5457 H   0  0
    4.6642   27.3974   52.6120 H   0  0
    4.2781   26.9672   50.9701 H   0  0
    3.2579   27.8452   49.0881 H   0  0
    2.8155   32.7294   49.9590 H   0  0
    7.0843   27.9579   51.8004 H   0  0
    1.9325   29.2786   47.5891 H   0  0
    4.3068   23.8193   53.4893 H   0  0
    3.9985   25.3570   52.7539 H   0  0
    3.5641   25.1115   54.4204 H   0  0
    6.8755   29.6533   53.2584 H   0  0
    5.4987   28.9816   54.0904 H   0  0
    3.9060   32.9560   52.8497 H   0  0
    5.1733   33.2743   51.6783 H   0  0
    9.5069   26.5600   55.9527 H   0  0
    8.7056   25.3720   56.9778 H   0  0
    8.1889   27.0357   57.0092 H   0  0
    7.6344   27.0286   49.8022 H   0  0
    1.2900   32.9431   48.1539 H   0  0
    0.4978   31.4876   47.5511 H   0  0
    1.9848   32.0750   46.7841 H   0  0
    4.7239   31.1530   54.8295 H   0  0
    6.4313   31.0956   55.1646 H   0  0
    6.8722   32.3757   53.0199 H   0  0
    5.9021   33.2777   54.1471 H   0  0
  1  4  1  0
  1  9  1  0
  1 12  1  0
  2  3  1  0
  2  5  1  0
  2 11  1  0
  3 10  2  0
  4  7  2  0
  4 20  1  0
  5  6  2  0
  5 19  1  0
  6 10  1  0
  6 16  1  0
  7  8  1  0
  7 21  1  0
  8  9  2  0
  8 14  1  0
  9 13  1  0
 10 22  1  0
 11 15  1  0
 11 27  1  0
 11 28  1  0
 12 15  1  0
 12 29  1  0
 12 30  1  0
 13 17  2  0
 13 31  1  0
 14 18  2  0
 14 32  1  0
 15 23  1  0
 15 33  1  0
 17 18  1  0
 17 34  1  0
 18 24  1  0
 19 35  1  0
 19 36  1  0
 19 37  1  0
 20 25  1  0
 20 38  1  0
 20 39  1  0
 21 26  1  0
 21 40  1  0
 21 41  1  0
 22 42  1  0
 22 43  1  0
 22 44  1  0
 23 45  1  0
 24 46  1  0
 24 47  1  0
 24 48  1  0
 25 26  1  0
 25 49  1  0
 25 50  1  0
 26 51  1  0
 26 52  1  0
M  END
> <activity>
0

$$$$
ligand_327
  SciTegic10272118463D

 46 49  0  0  1  0            999 V2000
    5.5854   28.3343   52.2812 N   0  0
    5.9791   27.1173   52.8323 C   0  0
    5.7101   26.1255   52.0279 N   0  0
    4.9798   27.9410   51.0947 C   0  0
    5.1060   26.6543   50.9054 N   0  0
    6.8972   25.8461   56.3125 C   0  0
    8.6703   26.1580   57.6532 N   0  0
    6.6816   25.1332   57.5523 C   0  0
    7.8032   25.3541   58.3411 C   0  0
    8.1619   26.4886   56.4236 C   0  0
    6.6735   26.8849   54.1266 C   0  0
    6.1599   26.0405   55.1239 C   0  0
    5.6909   29.6528   52.8065 C   0  0
    0.9984   30.7826   48.2880 N   0  0
    1.1062   29.8837   49.0085 C   0  0
    8.6861   27.2949   55.4179 C   0  0
    7.9060   27.4996   54.2891 C   0  0
    4.0618   28.9580   49.9833 S   0  0
    5.9061   30.7443   51.9524 C   0  0
    5.5060   29.8826   54.1729 C   0  0
    1.2421   28.7399   49.9241 C   0  0
    5.4990   32.2594   53.7802 C   0  0
    5.7898   32.0469   52.4348 C   0  0
    5.4234   31.1853   54.6611 C   0  0
    5.4595   24.3329   57.9308 C   0  0
    5.1060   34.0146   54.4088 Br  0  0
    8.1756   24.8853   59.7294 C   0  0
    2.4648   28.8195   50.8475 C   0  0
    9.5683   26.4194   58.0372 H   0  0
    5.2004   25.5622   54.9896 H   0  0
    9.6540   27.7580   55.4880 H   0  0
    8.2924   28.1351   53.5047 H   0  0
    6.0985   30.5956   50.9005 H   0  0
    5.3418   29.0598   54.8507 H   0  0
    1.2845   27.8332   49.3196 H   0  0
    0.3308   28.6852   50.5193 H   0  0
    5.8770   32.8856   51.7596 H   0  0
    5.2071   31.3580   55.7051 H   0  0
    5.6480   23.6321   58.7431 H   0  0
    5.1060   23.7580   57.0882 H   0  0
    4.6293   24.9580   58.2469 H   0  0
    7.4022   24.2645   60.1805 H   0  0
    8.3416   25.7236   60.4072 H   0  0
    9.0925   24.2951   59.7218 H   0  0
    2.4636   27.9363   51.4880 H   0  0
    2.3746   29.6789   51.5132 H   0  0
  1  2  1  0
  1  4  1  0
  1 13  1  0
  2  3  2  0
  2 11  1  0
  3  5  1  0
  4  5  2  0
  4 18  1  0
  6  8  1  0
  6 10  1  0
  6 12  2  0
  7  9  1  0
  7 10  1  0
  7 29  1  0
  8  9  2  0
  8 25  1  0
  9 27  1  0
 10 16  2  0
 11 12  1  0
 11 17  2  0
 12 30  1  0
 13 19  2  0
 13 20  1  0
 14 15  3  0
 15 21  1  0
 16 17  1  0
 16 31  1  0
 17 32  1  0
 18 28  1  0
 19 23  1  0
 19 33  1  0
 20 24  2  0
 20 34  1  0
 21 28  1  0
 21 35  1  0
 21 36  1  0
 22 23  2  0
 22 24  1  0
 22 26  1  0
 23 37  1  0
 24 38  1  0
 25 39  1  0
 25 40  1  0
 25 41  1  0
 27 42  1  0
 27 43  1  0
 27 44  1  0
 28 45  1  0
 28 46  1  0
M  END
> <activity>
0

$$$$
ligand_328
  SciTegic10272118463D

 36 38  0  0  1  0            999 V2000
    6.3000   26.2635   54.8023 N   0  0
    5.1838   26.9908   54.5005 C   0  0
    7.0426   26.0417   53.6822 C   0  0
    6.5498   25.7035   56.0894 C   0  0
    5.1818   27.2315   53.0021 C   0  0  2  0  0  0
    6.6367   27.1157   52.6946 C   0  0  2  0  0  0
    5.5060   25.0312   56.7407 C   0  0
    7.7760   25.8469   56.7764 C   0  0
    5.6527   24.4999   58.0188 C   0  0
    6.8421   26.8927   51.1824 C   0  0
    6.8652   24.6485   58.6909 C   0  0
    7.9060   25.3333   58.0728 C   0  0
    4.6154   28.5585   52.4425 C   0  0
    4.3060   27.3580   55.2702 O   0  0
    7.9060   25.1933   53.4887 O   0  0
    6.0530   27.9755   50.4361 C   0  0
    5.0731   28.7398   50.9835 C   0  0
    4.3204   23.6633   58.7340 Cl  0  0
    7.1341   23.9463   60.4441 Br  0  0
    8.9653   26.5904   56.1901 C   0  0
    4.3503   29.8014   50.1751 C   0  0
    4.6166   26.4105   52.5485 H   0  0
    7.1716   28.0293   52.9748 H   0  0
    4.5435   24.9580   56.2599 H   0  0
    6.5008   25.9048   50.8676 H   0  0
    7.9017   26.9547   50.9343 H   0  0
    8.8351   25.4507   58.6128 H   0  0
    4.9433   29.4149   53.0346 H   0  0
    3.5254   28.5441   52.4964 H   0  0
    6.3060   28.1578   49.4033 H   0  0
    8.7047   27.6300   55.9912 H   0  0
    9.3092   26.1580   55.2577 H   0  0
    9.8195   26.5580   56.8672 H   0  0
    3.2798   29.5945   50.1539 H   0  0
    4.7020   29.8402   49.1433 H   0  0
    4.5013   30.7845   50.6218 H   0  0
  1  2  1  0
  1  3  1  0
  1  4  1  0
  2  5  1  0
  2 14  2  0
  3  6  1  0
  3 15  2  0
  4  7  2  0
  4  8  1  0
  5  6  1  0
  5 13  1  0
  5 22  1  0
  6 10  1  0
  6 23  1  0
  7  9  1  0
  7 24  1  0
  8 12  2  0
  8 20  1  0
  9 11  2  0
  9 18  1  0
 10 16  1  0
 10 25  1  0
 10 26  1  0
 11 12  1  0
 11 19  1  0
 12 27  1  0
 13 17  1  0
 13 28  1  0
 13 29  1  0
 16 17  2  0
 16 30  1  0
 17 21  1  0
 20 31  1  0
 20 32  1  0
 20 33  1  0
 21 34  1  0
 21 35  1  0
 21 36  1  0
M  END
> <activity>
0

$$$$
ligand_329
  SciTegic10272118463D

 44 46  0  0  1  0            999 V2000
    4.5693   27.6884   51.6328 N   0  0
    2.9890   29.1987   51.0187 C   0  0
    3.2426   27.8772   51.3235 C   0  0
    4.2416   29.8820   51.1477 C   0  0
    5.2206   28.9038   51.5117 C   0  0
    6.4238   25.8475   55.6034 C   0  0
    1.7160   29.7854   50.6453 C   0  0
    5.0337   26.0952   53.5138 C   0  0
    6.1585   26.2133   54.2577 N   0  0
    5.1755   26.4155   52.0198 C   0  0
    0.7062   30.2597   50.3473 N   0  0
    5.5046   25.1707   56.4124 C   0  0
    7.6803   26.1577   56.1538 C   0  0
    7.0796   25.0466   58.2465 C   0  0
    7.9926   25.7615   57.4599 C   0  0
    5.8217   24.7607   57.7083 C   0  0
    6.5665   29.2371   51.6865 C   0  0
    4.6486   31.2221   50.9991 C   0  0
    3.9263   25.7581   53.9336 O   0  0
    5.9873   31.5480   51.1929 C   0  0
    6.9225   30.5692   51.4929 C   0  0
    7.3317   24.6209   59.5384 O   0  0
    6.5627   33.3577   51.0859 Br  0  0
    8.7056   26.9612   55.3725 C   0  0
    4.7681   24.0469   58.5482 C   0  0
    8.5695   24.9435   60.1578 C   0  0
    2.5699   27.0302   51.3502 H   0  0
    6.9615   26.5796   53.7742 H   0  0
    4.7019   25.6201   51.4431 H   0  0
    6.2216   26.4107   51.7126 H   0  0
    4.5145   24.9581   56.0535 H   0  0
    8.9611   26.0211   57.8591 H   0  0
    7.3004   28.4968   51.9608 H   0  0
    3.9344   31.9945   50.7532 H   0  0
    7.9519   30.8656   51.6253 H   0  0
    9.6824   26.9572   55.8587 H   0  0
    8.3761   27.9963   55.2842 H   0  0
    8.8193   26.5573   54.3710 H   0  0
    5.1066   23.0557   58.8507 H   0  0
    3.8330   23.9227   58.0034 H   0  0
    4.5503   24.6190   59.4514 H   0  0
    8.5789   24.5355   61.1679 H   0  0
    8.7062   26.0235   60.2353 H   0  0
    9.4120   24.5048   59.6223 H   0  0
  1  3  1  0
  1  5  1  0
  1 10  1  0
  2  3  2  0
  2  4  1  0
  2  7  1  0
  3 27  1  0
  4  5  2  0
  4 18  1  0
  5 17  1  0
  6  9  1  0
  6 12  2  0
  6 13  1  0
  7 11  3  0
  8  9  1  0
  8 10  1  0
  8 19  2  0
  9 28  1  0
 10 29  1  0
 10 30  1  0
 12 16  1  0
 12 31  1  0
 13 15  2  0
 13 24  1  0
 14 15  1  0
 14 16  2  0
 14 22  1  0
 15 32  1  0
 16 25  1  0
 17 21  2  0
 17 33  1  0
 18 20  2  0
 18 34  1  0
 20 21  1  0
 20 23  1  0
 21 35  1  0
 22 26  1  0
 24 36  1  0
 24 37  1  0
 24 38  1  0
 25 39  1  0
 25 40  1  0
 25 41  1  0
 26 42  1  0
 26 43  1  0
 26 44  1  0
M  END
> <activity>
0

$$$$
ligand_330
  SciTegic10272118463D

 45 48  0  0  1  0            999 V2000
    7.2636   26.0768   55.8983 C   0  0
    8.3437   25.9522   58.0421 N   0  0
    6.1910   24.8257   57.8263 C   0  0
    6.0916   25.2662   56.3866 C   0  0
    8.3024   26.3625   56.7299 C   0  0
    7.3004   26.6459   54.5680 C   0  0
    7.3182   25.1786   58.5624 C   0  0
    6.1564   27.2867   54.2563 N   0  0
    5.8714   27.9788   53.0780 C   0  0
    7.5268   24.8073   59.8610 C   0  0
    5.7821   29.3830   53.1176 C   0  0
    5.5330   27.2816   51.9036 C   0  0
    5.2148   24.0725   58.5135 C   0  0
    9.0886   26.4126   59.2210 C   0  0
    6.5970   24.0493   60.5220 C   0  0
    5.1202   24.9668   55.6945 O   0  0
    8.2968   26.5693   53.8391 O   0  0
    8.8217   25.3444   60.2853 C   0  0
    5.1313   27.9997   50.7770 C   0  0
    5.4000   30.0790   51.9683 C   0  0
    5.4467   23.6824   59.8490 C   0  0
    5.0695   29.3912   50.7999 C   0  0
    4.3051   22.5594   60.8295 Br  0  0
    5.5376   25.7605   51.8381 C   0  0
    6.0393   30.1719   54.3977 C   0  0
    4.6246   30.1420   49.5628 C   0  0
    9.1475   26.9567   56.4114 H   0  0
    5.4305   27.2920   54.9548 H   0  0
    4.3068   23.7619   58.0166 H   0  0
    8.7072   27.3572   59.5932 H   0  0
   10.1479   26.5590   59.0592 H   0  0
    6.7672   23.7214   61.5328 H   0  0
    9.5786   24.5616   60.2886 H   0  0
    8.7059   25.7580   61.2776 H   0  0
    4.8303   27.4698   49.8880 H   0  0
    5.3287   31.1566   51.9935 H   0  0
    5.1012   25.3876   50.9110 H   0  0
    4.9602   25.3445   52.6642 H   0  0
    6.5565   25.3803   51.9035 H   0  0
    6.2880   31.2132   54.1891 H   0  0
    6.8684   29.7499   54.9652 H   0  0
    5.1507   30.1595   55.0288 H   0  0
    3.7615   29.6585   49.1038 H   0  0
    5.4351   30.1563   48.8352 H   0  0
    4.3469   31.1705   49.7992 H   0  0
  1  4  1  0
  1  5  2  0
  1  6  1  0
  2  5  1  0
  2  7  1  0
  2 14  1  0
  3  4  1  0
  3  7  2  0
  3 13  1  0
  4 16  2  0
  5 27  1  0
  6  8  1  0
  6 17  2  0
  7 10  1  0
  8  9  1  0
  8 28  1  0
  9 11  2  0
  9 12  1  0
 10 15  2  0
 10 18  1  0
 11 20  1  0
 11 25  1  0
 12 19  2  0
 12 24  1  0
 13 21  2  0
 13 29  1  0
 14 18  1  0
 14 30  1  0
 14 31  1  0
 15 21  1  0
 15 32  1  0
 18 33  1  0
 18 34  1  0
 19 22  1  0
 19 35  1  0
 20 22  2  0
 20 36  1  0
 21 23  1  0
 22 26  1  0
 24 37  1  0
 24 38  1  0
 24 39  1  0
 25 40  1  0
 25 41  1  0
 25 42  1  0
 26 43  1  0
 26 44  1  0
 26 45  1  0
M  END
> <activity>
0

$$$$
ligand_331
  SciTegic10272118463D

 44 46  0  0  1  0            999 V2000
    6.0320   24.5610   58.5501 C   0  0
    5.9910   25.1452   56.4942 N   0  0
    5.2732   24.5695   57.4772 N   0  0
    7.2760   25.1527   58.2693 C   0  0
    7.2522   25.5025   56.9243 C   0  0
    2.4455   28.9342   49.6559 N   0  3
    5.4815   24.0491   59.8759 C   0  0
    5.4066   25.2095   55.1344 C   0  0
    3.5278   28.9244   50.6647 C   0  0
    5.3740   26.5713   54.4369 C   0  0
    4.8405   27.7559   52.3552 C   0  0
    3.8275   27.7599   51.3909 C   0  0
    4.2492   30.0951   50.9367 C   0  0
    5.2633   30.0996   51.8922 C   0  0
    5.0363   26.5912   53.1262 N   0  0
    2.5248   29.7357   48.7275 O   0  5
    1.5064   28.1587   49.8019 O   0  0
    5.5980   28.9194   52.5491 C   0  0
    8.7051   25.4620   59.4902 Br  0  0
    5.5946   27.5844   55.0878 O   0  0
    5.9084   31.2712   52.1991 O   0  0
    4.7931   32.1617   55.6192 N   0  0
    6.4591   23.7587   60.7321 F   0  0
    4.7062   24.9579   60.4603 F   0  0
    4.7456   22.9504   59.7166 F   0  0
    8.2999   26.1581   56.0492 C   0  0
    5.5075   31.9943   53.3055 C   0  0
    5.1507   31.4251   54.5386 C   0  0
    4.7664   33.5068   55.4725 C   0  0
    5.5060   33.3818   53.2022 C   0  0
    5.1061   34.1569   54.2890 C   0  0
    5.9060   24.4641   54.5154 H   0  0
    4.3503   24.9580   55.1998 H   0  0
    3.2465   26.8668   51.2163 H   0  0
    4.0121   31.0151   50.4221 H   0  0
    4.7907   25.7168   52.6867 H   0  0
    6.4107   28.9457   53.2593 H   0  0
    8.4502   25.6215   55.1130 H   0  0
    9.2588   26.1918   56.5634 H   0  0
    8.0490   27.1902   55.8067 H   0  0
    5.1459   30.3570   54.6900 H   0  0
    4.4667   34.0730   56.3417 H   0  0
    5.8142   33.8546   52.2809 H   0  0
    5.0861   35.2330   54.2159 H   0  0
  1  3  2  0
  1  4  1  0
  1  7  1  0
  2  3  1  0
  2  5  1  0
  2  8  1  0
  4  5  2  0
  4 19  1  0
  5 26  1  0
  6  9  1  0
  6 16  1  0
  6 17  2  0
  7 23  1  0
  7 24  1  0
  7 25  1  0
  8 10  1  0
  8 32  1  0
  8 33  1  0
  9 12  1  0
  9 13  2  0
 10 15  1  0
 10 20  2  0
 11 12  2  0
 11 15  1  0
 11 18  1  0
 12 34  1  0
 13 14  1  0
 13 35  1  0
 14 18  2  0
 14 21  1  0
 15 36  1  0
 18 37  1  0
 21 27  1  0
 22 28  2  0
 22 29  1  0
 26 38  1  0
 26 39  1  0
 26 40  1  0
 27 28  1  0
 27 30  2  0
 28 41  1  0
 29 31  2  0
 29 42  1  0
 30 31  1  0
 30 43  1  0
 31 44  1  0
M  CHG  2   6   1  16  -1
M  END
> <activity>
0

$$$$
ligand_332
  SciTegic10272118463D

 48 51  0  0  1  0            999 V2000
    5.0424   29.0064   52.1370 N   0  0
    5.5284   28.0391   52.9817 C   0  0
    4.7247   26.9206   52.8781 C   0  0
    3.9295   28.5213   51.4724 C   0  0
    3.7722   27.2081   51.8890 C   0  0
    5.7900   32.4755   53.0235 C   0  0
    5.5696   30.2876   52.0394 C   0  0
    4.9522   25.7310   53.6945 C   0  0
    5.3371   31.1634   53.0924 C   0  0
    5.4496   33.3902   54.1571 C   0  0
    6.7339   28.1773   53.9059 C   0  0
    3.0812   29.3525   50.5621 C   0  0
    7.2789   26.7530   54.2095 C   0  0
    6.5397   32.8516   51.8878 C   0  0
    6.1208   25.8336   54.6880 C   0  0
    6.2791   30.6677   50.9075 C   0  0
    4.3052   24.7027   53.5932 O   0  0
    5.1059   34.5581   53.8876 O   0  0
    6.7788   31.9581   50.8436 C   0  0
    2.6283   30.5858   51.0352 C   0  0
    2.7234   28.9325   49.2786 C   0  0
    5.5056   32.9201   55.3174 O   0  5
    1.5068   30.9954   48.9549 C   0  0
    1.8491   31.4084   50.2351 C   0  0
    1.9375   29.7586   48.4704 C   0  0
    7.1018   34.0835   51.7330 O   0  0
    0.4424   32.1578   47.8882 Br  0  0
    8.2912   26.8462   55.3652 C   0  0
    7.9060   26.1586   52.9196 C   0  0
    2.9805   26.5582   51.5571 H   0  0
    4.7696   30.8257   53.9517 H   0  0
    7.5141   28.7986   53.4626 H   0  0
    6.4268   28.6831   54.8227 H   0  0
    6.4952   24.8249   54.8656 H   0  0
    5.7076   26.1929   55.6322 H   0  0
    6.4501   29.9749   50.0980 H   0  0
    7.3551   32.2679   49.9835 H   0  0
    2.8828   30.9165   52.0289 H   0  0
    3.0601   27.9746   48.9085 H   0  0
    1.5115   32.3646   50.6065 H   0  0
    1.6675   29.4397   47.4756 H   0  0
    6.8609   34.7127   52.4284 H   0  0
    8.7088   25.8664   55.5991 H   0  0
    7.8513   27.2278   56.2859 H   0  0
    9.1073   27.5175   55.1118 H   0  0
    8.2672   25.1438   53.0899 H   0  0
    8.7481   26.7616   52.5795 H   0  0
    7.2143   26.1010   52.0795 H   0  0
  1  2  1  0
  1  4  1  0
  1  7  1  0
  2  3  2  0
  2 11  1  0
  3  5  1  0
  3  8  1  0
  4  5  2  0
  4 12  1  0
  5 30  1  0
  6  9  2  0
  6 10  1  0
  6 14  1  0
  7  9  1  0
  7 16  2  0
  8 15  1  0
  8 17  2  0
  9 31  1  0
 10 18  2  0
 10 22  1  0
 11 13  1  0
 11 32  1  0
 11 33  1  0
 12 20  2  0
 12 21  1  0
 13 15  1  0
 13 28  1  0
 13 29  1  0
 14 19  2  0
 14 26  1  0
 15 34  1  0
 15 35  1  0
 16 19  1  0
 16 36  1  0
 19 37  1  0
 20 24  1  0
 20 38  1  0
 21 25  2  0
 21 39  1  0
 23 24  2  0
 23 25  1  0
 23 27  1  0
 24 40  1  0
 25 41  1  0
 26 42  1  0
 28 43  1  0
 28 44  1  0
 28 45  1  0
 29 46  1  0
 29 47  1  0
 29 48  1  0
M  CHG  1  22  -1
M  END
> <activity>
0

$$$$
ligand_333
  SciTegic10272118463D

 49 52  0  0  1  0            999 V2000
    3.8865   28.4524   51.9811 N   0  0
    5.9852   28.1440   52.7519 C   0  0
    4.6532   27.5174   52.5778 C   0  0
    5.8538   29.4772   52.1732 C   0  0
    4.5031   29.6739   52.0429 C   0  0
    7.0140   27.6574   53.3495 N   0  0
    2.5233   28.2133   51.4878 C   0  0
    6.8073   26.6271   54.2229 N   0  0
    7.5934   26.4885   55.3133 C   0  0
    2.2411   28.6555   50.0253 N   0  3
    3.9432   30.9333   51.8753 C   0  0
    6.7068   30.5495   51.8871 C   0  0
    4.3231   26.3735   52.9023 O   0  0
    8.7026   27.0197   55.3947 O   0  0
    6.1641   24.3158   58.7968 N   0  0
    7.0637   25.7082   56.5036 C   0  0
    6.1559   31.8086   51.6212 C   0  0
    4.7838   31.9977   51.6400 C   0  0
    7.2346   33.3353   51.2981 Br  0  0
    3.4989   29.0402   49.2086 C   0  0
    1.1230   29.7350   50.0038 C   0  0
    5.3381   24.5576   57.7505 C   0  0
    7.4358   24.7762   58.7143 C   0  0
    5.7402   25.2395   56.5930 C   0  0
    7.9071   25.4751   57.6056 C   0  0
    0.8152   30.1839   48.5731 C   0  0
    3.0527   29.3504   47.8048 C   0  0
    2.0875   30.5321   47.7824 C   0  0
    1.8267   28.7631   52.1219 H   0  0
    2.2479   27.1557   51.4756 H   0  0
    5.8841   26.2152   54.1784 H   0  0
    1.8773   27.8337   49.5568 H   0  0
    2.8829   31.0987   51.8895 H   0  0
    7.7806   30.4381   51.8869 H   0  0
    4.3608   32.9575   51.4378 H   0  0
    3.9860   29.9180   49.6077 H   0  0
    4.1699   28.1879   49.2600 H   0  0
    1.4522   30.5873   50.5843 H   0  0
    0.2556   29.2967   50.4904 H   0  0
    4.3228   24.2016   57.8598 H   0  0
    8.0801   24.5844   59.5598 H   0  0
    5.0188   25.4044   55.8060 H   0  0
    8.9300   25.8257   57.6133 H   0  0
    0.2625   29.3961   48.0676 H   0  0
    0.1466   31.0479   48.5928 H   0  0
    2.5596   28.4372   47.4770 H   0  0
    3.9096   29.5341   47.1584 H   0  0
    1.8744   30.7799   46.7417 H   0  0
    2.5660   31.4194   48.2017 H   0  0
  1  3  1  0
  1  5  1  0
  1  7  1  0
  2  3  1  0
  2  4  1  0
  2  6  2  0
  3 13  2  0
  4  5  2  0
  4 12  1  0
  5 11  1  0
  6  8  1  0
  7 10  1  0
  7 29  1  0
  7 30  1  0
  8  9  1  0
  8 31  1  0
  9 14  2  0
  9 16  1  0
 10 20  1  0
 10 21  1  0
 10 32  1  0
 11 18  2  0
 11 33  1  0
 12 17  2  0
 12 34  1  0
 15 22  1  0
 15 23  2  0
 16 24  1  0
 16 25  2  0
 17 18  1  0
 17 19  1  0
 18 35  1  0
 20 27  1  0
 20 36  1  0
 20 37  1  0
 21 26  1  0
 21 38  1  0
 21 39  1  0
 22 24  2  0
 22 40  1  0
 23 25  1  0
 23 41  1  0
 24 42  1  0
 25 43  1  0
 26 28  1  0
 26 44  1  0
 26 45  1  0
 27 28  1  0
 27 46  1  0
 27 47  1  0
 28 48  1  0
 28 49  1  0
M  CHG  1  10   1
M  END
> <activity>
0

$$$$
ligand_334
  SciTegic10272118463D

 26 28  0  0  1  0            999 V2000
    5.5797   25.9914   54.0638 N   0  0
    6.6018   25.5858   56.0452 C   0  0
    6.9677   26.1204   53.8525 C   0  0
    5.3727   25.6737   55.3848 C   0  0
    7.5929   25.8632   55.0989 C   0  0
    6.8089   25.2579   57.4933 C   0  0
    4.6727   26.1767   53.0537 C   0  0
    7.3989   26.4489   52.5537 C   0  0
    5.8421   24.5496   58.2056 C   0  0
    5.1098   26.5032   51.7750 C   0  0
    6.4706   26.6344   51.5302 C   0  0
    6.0445   24.2594   59.5490 C   0  0
    4.7201   23.2998   60.5149 Br  0  0
    7.9743   25.6618   58.1505 C   0  0
    8.1836   25.3567   59.4904 C   0  0
    7.2109   24.6578   60.1897 C   0  0
    4.3747   25.5275   55.7731 H   0  0
    8.6519   25.8762   55.3068 H   0  0
    3.6285   26.0584   53.3022 H   0  0
    8.4494   26.5605   52.3365 H   0  0
    4.9271   24.2370   57.7286 H   0  0
    4.3945   26.6448   50.9745 H   0  0
    6.8115   26.8864   50.5360 H   0  0
    8.7439   26.2052   57.6177 H   0  0
    9.0916   25.6686   59.9844 H   0  0
    7.3627   24.4236   61.2346 H   0  0
  1  3  1  0
  1  4  1  0
  1  7  1  0
  2  4  2  0
  2  5  1  0
  2  6  1  0
  3  5  2  0
  3  8  1  0
  4 17  1  0
  5 18  1  0
  6  9  2  0
  6 14  1  0
  7 10  2  0
  7 19  1  0
  8 11  2  0
  8 20  1  0
  9 12  1  0
  9 21  1  0
 10 11  1  0
 10 22  1  0
 11 23  1  0
 12 13  1  0
 12 16  2  0
 14 15  2  0
 14 24  1  0
 15 16  1  0
 15 25  1  0
 16 26  1  0
M  END
> <activity>
0

$$$$
ligand_335
  SciTegic10272118463D

 38 41  0  0  1  0            999 V2000
    3.6042   29.3075   51.5943 N   0  0
    4.6761   28.5855   51.8170 C   0  0
    5.1743   28.2270   53.1266 C   0  0
    3.4087   29.5812   50.3121 C   0  0
    7.9716   26.3871   56.1948 N   0  0
    5.3530   26.9502   53.5343 C   0  0
    5.5723   28.1680   50.4016 S   0  0
    7.3421   26.7965   55.0670 C   0  0
    5.9937   26.5235   54.7926 C   0  0
    4.3926   29.0489   49.4833 C   0  0
    5.5293   29.3661   53.9120 C   0  0
    2.2458   30.4228   49.8690 C   0  0
    5.9036   25.3181   56.9060 C   0  0
    7.2676   25.6778   57.1173 C   0  0
    5.8496   30.3063   54.5066 N   0  0
    5.2758   25.7568   55.7122 C   0  0
    0.0904   31.4305   50.3492 C   0  0
    1.1228   30.5604   50.6878 C   0  0
    0.1575   32.1480   49.1498 C   0  0
    5.2335   24.5576   57.8966 C   0  0
    2.2774   31.1122   48.6509 C   0  0
    1.2432   31.9739   48.2938 C   0  0
    7.9063   25.2991   58.3221 C   0  0
    8.3047   27.6885   53.9429 Cl  0  0
    5.8904   24.1882   59.0696 C   0  0
   -1.2507   31.5927   51.4327 Cl  0  0
   -1.1064   33.2339   48.6857 Cl  0  0
    7.2162   24.5605   59.2825 C   0  0
    4.9567   23.1885   60.3901 Br  0  0
    5.0438   26.1490   52.8742 H   0  0
    4.4760   29.1212   48.4113 H   0  0
    4.2376   25.5086   55.5356 H   0  0
    1.0666   30.0122   51.6164 H   0  0
    4.1998   24.2820   57.7590 H   0  0
    3.1062   31.0000   47.9715 H   0  0
    1.2904   32.5119   47.3566 H   0  0
    8.9362   25.5839   58.4876 H   0  0
    7.7124   24.2736   60.1983 H   0  0
  1  2  2  0
  1  4  1  0
  2  3  1  0
  2  7  1  0
  3  6  2  0
  3 11  1  0
  4 10  2  0
  4 12  1  0
  5  8  1  0
  5 14  2  0
  6  9  1  0
  6 30  1  0
  7 10  1  0
  8  9  2  0
  8 24  1  0
  9 16  1  0
 10 31  1  0
 11 15  3  0
 12 18  1  0
 12 21  2  0
 13 14  1  0
 13 16  2  0
 13 20  1  0
 14 23  1  0
 16 32  1  0
 17 18  2  0
 17 19  1  0
 17 26  1  0
 18 33  1  0
 19 22  2  0
 19 27  1  0
 20 25  2  0
 20 34  1  0
 21 22  1  0
 21 35  1  0
 22 36  1  0
 23 28  2  0
 23 37  1  0
 25 28  1  0
 25 29  1  0
 28 38  1  0
M  END
> <activity>
0

$$$$
ligand_336
  SciTegic10272118463D

 40 43  0  0  1  0            999 V2000
    5.7049   27.9039   52.6312 C   0  0
    5.2342   29.0519   52.0208 N   0  0
    4.1136   28.6346   51.3222 C   0  0
    3.9307   27.3499   51.4864 N   0  0
    4.9653   26.8778   52.2825 N   0  0
    7.1638   27.7990   53.6385 S   0  0
    5.5927   24.2708   58.3007 N   0  3
    6.0156   25.0783   57.1352 C   0  0
    6.7260   26.7092   54.9917 C   0  0
    5.4383   26.3015   55.1177 N   0  0
    7.3390   25.4980   56.9920 C   0  0
    7.6962   26.3231   55.9282 C   0  0
    3.2298   29.4963   50.4727 C   0  0
    5.7836   30.3451   52.0353 C   0  0
    5.1064   25.5049   56.1615 C   0  0
    4.4801   23.7571   58.2883 O   0  5
    6.3750   24.1566   59.2387 O   0  0
    2.8060   30.7439   50.9371 C   0  0
    2.8166   29.0570   49.2094 C   0  0
    9.4729   26.9578   55.8846 Br  0  0
    1.6063   31.1190   48.8882 C   0  0
    2.0078   29.8698   48.4144 C   0  0
    2.0009   31.5555   50.1477 C   0  0
    0.6110   32.1426   47.9202 Cl  0  0
    5.4791   31.2228   53.0710 C   0  0
    6.5511   30.7720   50.9553 C   0  0
    7.0016   32.0843   50.9007 C   0  0
    5.9060   32.5434   52.9980 C   0  0
    6.6693   32.9716   51.9164 C   0  0
    8.0855   25.2230   57.7243 H   0  0
    4.0635   25.2504   56.2164 H   0  0
    3.0908   31.0905   51.9174 H   0  0
    3.1282   28.0888   48.8411 H   0  0
    1.6955   29.5335   47.4366 H   0  0
    1.6837   32.5224   50.5098 H   0  0
    4.8750   30.8976   53.9061 H   0  0
    6.7852   30.0909   50.1522 H   0  0
    7.6030   32.4158   50.0662 H   0  0
    5.6509   33.2361   53.7865 H   0  0
    7.0079   33.9966   51.8730 H   0  0
  1  2  1  0
  1  5  2  0
  1  6  1  0
  2  3  1  0
  2 14  1  0
  3  4  2  0
  3 13  1  0
  4  5  1  0
  6  9  1  0
  7  8  1  0
  7 16  1  0
  7 17  2  0
  8 11  2  0
  8 15  1  0
  9 10  1  0
  9 12  2  0
 10 15  2  0
 11 12  1  0
 11 30  1  0
 12 20  1  0
 13 18  2  0
 13 19  1  0
 14 25  2  0
 14 26  1  0
 15 31  1  0
 18 23  1  0
 18 32  1  0
 19 22  2  0
 19 33  1  0
 21 22  1  0
 21 23  2  0
 21 24  1  0
 22 34  1  0
 23 35  1  0
 25 28  1  0
 25 36  1  0
 26 27  2  0
 26 37  1  0
 27 29  1  0
 27 38  1  0
 28 29  2  0
 28 39  1  0
 29 40  1  0
M  CHG  2   7   1  16  -1
M  END
> <activity>
0

$$$$
ligand_337
  SciTegic10272118463D

 42 43  0  0  1  0            999 V2000
    5.1407   27.6125   51.5331 S   0  0
    5.7325   31.4719   52.6656 C   0  0
    6.8987   24.4239   60.4967 N   0  3
    6.1401   26.9025   52.7919 N   0  0
    6.0186   27.0559   54.2729 C   0  0  2  0  0  0
    5.5699   29.3460   51.5109 C   0  0
    5.3368   30.1315   52.6390 C   0  0
    5.5012   32.2686   53.9066 C   0  0
    6.8877   24.9230   59.1020 C   0  0
    3.7244   27.5227   51.9004 O   0  0
    5.6358   27.0219   50.2881 O   0  0
    6.9941   26.0025   54.8958 C   0  0  2  0  0  0
    6.3909   31.9963   51.5366 C   0  0
    5.9079   23.8290   60.9104 O   0  5
    7.9050   24.6010   61.1739 O   0  0
    6.9175   25.7432   56.4087 C   0  0
    4.8928   33.3565   53.7948 O   0  0
    6.1591   29.8977   50.3754 C   0  0
    5.8551   24.5563   58.2335 C   0  0
    7.9149   25.7448   58.6208 C   0  0
    6.5790   31.2204   50.3948 C   0  0
    7.9251   26.1573   57.2894 C   0  0
    5.8794   24.9576   56.9047 C   0  0
    5.9060   31.7733   54.9837 O   0  5
    7.1100   33.7581   51.4909 Br  0  0
    4.5462   26.9698   54.7477 C   0  0
    8.3060   26.3372   54.4729 O   0  0
    3.9688   25.7411   54.3673 O   0  0
    6.9180   26.3228   52.4667 H   0  0
    6.3870   28.0494   54.5337 H   0  0
    4.8552   29.6966   53.5030 H   0  0
    6.7846   25.0335   54.4351 H   0  0
    6.3063   29.2960   49.4918 H   0  0
    5.0445   23.9261   58.5717 H   0  0
    8.7270   26.0463   59.2692 H   0  0
    7.0702   31.6443   49.5311 H   0  0
    8.7549   26.7533   56.9417 H   0  0
    5.1064   24.5994   56.2466 H   0  0
    4.4755   27.0795   55.8297 H   0  0
    3.9374   27.7775   54.3443 H   0  0
    8.4263   27.2786   54.6269 H   0  0
    3.0136   25.8224   54.4066 H   0  0
  1  4  1  0
  1  6  1  0
  1 10  2  0
  1 11  2  0
  2  7  2  0
  2  8  1  0
  2 13  1  0
  3  9  1  0
  3 14  1  0
  3 15  2  0
  4  5  1  0
  4 29  1  0
  5 12  1  0
  5 26  1  0
  5 30  1  0
  6  7  1  0
  6 18  2  0
  7 31  1  0
  8 17  2  0
  8 24  1  0
  9 19  1  0
  9 20  2  0
 12 16  1  0
 12 27  1  0
 12 32  1  0
 13 21  2  0
 13 25  1  0
 16 22  2  0
 16 23  1  0
 18 21  1  0
 18 33  1  0
 19 23  2  0
 19 34  1  0
 20 22  1  0
 20 35  1  0
 21 36  1  0
 22 37  1  0
 23 38  1  0
 26 28  1  0
 26 39  1  0
 26 40  1  0
 27 41  1  0
 28 42  1  0
M  CHG  3   3   1  14  -1  24  -1
M  END
> <activity>
0

$$$$
ligand_338
  SciTegic10272118463D

 29 30  0  0  1  0            999 V2000
    6.1113   27.0044   53.2657 N   0  0
    7.4109   26.5795   53.0434 C   0  0
    5.1845   26.9917   52.2439 C   0  0
    7.7021   26.1580   51.6717 C   0  0
    8.3060   26.5446   53.8906 O   0  0
    5.4268   26.5963   50.9802 C   0  0
    6.7787   26.1604   50.6836 C   0  0
    7.1203   24.5821   59.4015 C   0  0
    6.0547   25.0838   56.8875 C   0  0
    5.7563   27.4759   54.6132 C   0  0
    7.8808   24.1582   61.0879 Br  0  0
    7.9082   25.1829   58.4241 C   0  0
    5.7898   24.2601   59.1455 C   0  0
    7.3800   25.4192   57.1580 C   0  0
    5.2565   24.5235   57.8879 C   0  0
    5.5498   25.2591   55.6238 O   0  0
    4.8689   26.4882   55.3946 C   0  0
    4.2092   27.3294   52.5646 H   0  0
    8.7060   25.8307   51.4496 H   0  0
    4.6434   26.5892   50.2372 H   0  0
    7.0511   25.8340   49.6892 H   0  0
    6.6429   27.7025   55.2056 H   0  0
    5.2228   28.4213   54.5112 H   0  0
    8.9368   25.4357   58.6383 H   0  0
    5.1811   23.8051   59.9118 H   0  0
    8.0004   25.8482   56.3856 H   0  0
    4.2301   24.2683   57.6844 H   0  0
    4.5056   26.9573   56.3095 H   0  0
    3.9771   26.2551   54.8126 H   0  0
  1  2  1  0
  1  3  1  0
  1 10  1  0
  2  4  1  0
  2  5  2  0
  3  6  2  0
  3 18  1  0
  4  7  2  0
  4 19  1  0
  6  7  1  0
  6 20  1  0
  7 21  1  0
  8 11  1  0
  8 12  2  0
  8 13  1  0
  9 14  2  0
  9 15  1  0
  9 16  1  0
 10 17  1  0
 10 22  1  0
 10 23  1  0
 12 14  1  0
 12 24  1  0
 13 15  2  0
 13 25  1  0
 14 26  1  0
 15 27  1  0
 16 17  1  0
 17 28  1  0
 17 29  1  0
M  END
> <activity>
0

$$$$
ligand_339
  SciTegic10272118463D

 41 43  0  0  1  0            999 V2000
    5.8541   26.3654   54.4078 N   0  0
    6.2304   26.7484   53.2132 C   0  0
    5.3710   26.9656   52.0679 C   0  0
    6.8827   26.1833   55.2355 C   0  0
    7.9223   26.9579   53.0516 S   0  0
    8.1179   26.5192   54.7013 C   0  0
    2.6930   28.9540   50.7083 C   0  0
    4.1604   27.5533   52.1033 C   0  0
    1.3948   29.0672   51.0864 N   0  0
    5.9772   26.5095   50.8525 C   0  0
    3.3262   27.7577   51.0325 N   0  0
    6.5708   26.1669   49.9175 N   0  0
    3.3492   29.9360   49.9496 C   0  0
    2.6230   31.0613   49.5521 C   0  0
    6.7014   25.6252   56.6049 C   0  0
    7.7040   25.7112   57.5805 C   0  0
    5.5063   24.9840   56.9099 C   0  0
    1.2765   31.1702   49.9051 C   0  0
    0.7050   30.1612   50.6807 C   0  0
    5.1785   29.7572   49.4269 Br  0  0
    6.2737   24.5801   59.1604 C   0  0
    7.4902   25.1857   58.8519 C   0  0
    5.3020   24.4344   58.1625 C   0  0
    0.2328   32.6489   49.3202 Br  0  0
    6.0608   24.2234   60.4723 O   0  0
    4.7084   24.1294   60.9138 C   0  0
    4.3065   22.6586   60.9621 C   0  0
    9.0945   26.4769   55.1606 H   0  0
    3.7389   27.9251   53.0287 H   0  0
    3.4750   27.1886   50.2086 H   0  0
    3.0946   31.8326   48.9599 H   0  0
    8.6436   26.2014   57.3760 H   0  0
    4.7060   24.9586   56.1852 H   0  0
   -0.3335   30.2091   50.9749 H   0  0
    8.2485   25.2897   59.6152 H   0  0
    4.3544   23.9559   58.3528 H   0  0
    4.6378   24.5756   61.8934 H   0  0
    4.0030   24.7232   60.3298 H   0  0
    3.2231   22.5580   61.0052 H   0  0
    4.7165   22.1613   61.8393 H   0  0
    4.6699   22.1461   60.0733 H   0  0
  1  2  2  0
  1  4  1  0
  2  3  1  0
  2  5  1  0
  3  8  2  0
  3 10  1  0
  4  6  2  0
  4 15  1  0
  5  6  1  0
  6 28  1  0
  7  9  1  0
  7 11  1  0
  7 13  2  0
  8 11  1  0
  8 29  1  0
  9 19  2  0
 10 12  3  0
 11 30  1  0
 13 14  1  0
 13 20  1  0
 14 18  2  0
 14 31  1  0
 15 16  2  0
 15 17  1  0
 16 22  1  0
 16 32  1  0
 17 23  2  0
 17 33  1  0
 18 19  1  0
 18 24  1  0
 19 34  1  0
 21 22  2  0
 21 23  1  0
 21 25  1  0
 22 35  1  0
 23 36  1  0
 25 26  1  0
 26 27  1  0
 26 37  1  0
 26 38  1  0
 27 39  1  0
 27 40  1  0
 27 41  1  0
M  END
> <activity>
0

$$$$
ligand_340
  SciTegic10272118463D

 41 44  0  0  1  0            999 V2000
    6.9041   27.4775   53.2252 C   0  0
    5.4770   27.8570   51.4495 N   0  0
    6.4441   27.0041   51.0127 C   0  0
    7.3022   26.7875   52.1589 C   0  0
    5.7294   28.3216   52.8159 C   0  0  2  0  0  0
    7.5014   27.4494   54.5508 C   0  0
    4.3969   28.3108   50.6705 C   0  0
    7.0258   26.4783   55.5686 C   0  0
    5.9088   29.8474   52.9145 C   0  0
    6.5434   26.5098   49.8880 O   0  0
    4.6369   28.9645   49.5051 N   0  0
    8.4624   28.1580   54.7864 O   0  0
    7.8313   26.1579   56.6764 C   0  0
    8.3060   25.9895   52.0530 O   0  5
    5.5055   31.8759   54.1717 N   0  0
    7.3042   25.4004   57.7199 C   0  0
    5.5060   30.5244   54.0678 C   0  0
    8.3059   25.0685   59.3030 Br  0  0
    5.7175   26.0015   55.5143 C   0  0
    3.1076   28.1145   51.1583 C   0  0
    5.2086   25.2598   56.5616 C   0  0
    6.3568   30.6132   51.8260 C   0  0
    3.5617   29.3745   48.7922 C   0  0
    5.9060   32.5848   53.0880 C   0  0
    5.9993   24.9416   57.6522 C   0  0
    6.3498   32.0024   51.9046 C   0  0
    2.0131   28.5582   50.4241 C   0  0
    2.2469   29.1959   49.2117 C   0  0
    4.8579   28.0677   53.4211 H   0  0
    8.8382   26.5428   56.7662 H   0  0
    5.1331   29.9839   54.9243 H   0  0
    5.0572   26.2435   54.6943 H   0  0
    2.9725   27.5935   52.0889 H   0  0
    4.1826   24.9580   56.5368 H   0  0
    6.6844   30.1406   50.9121 H   0  0
    3.7731   29.8530   47.8479 H   0  0
    5.8902   33.6606   53.1900 H   0  0
    5.5821   24.3753   58.4721 H   0  0
    6.6763   32.6086   51.0728 H   0  0
    1.0061   28.3953   50.7791 H   0  0
    1.4232   29.5398   48.6041 H   0  0
  1  4  2  0
  1  5  1  0
  1  6  1  0
  2  3  1  0
  2  5  1  0
  2  7  1  0
  3  4  1  0
  3 10  2  0
  4 14  1  0
  5  9  1  0
  5 29  1  0
  6  8  1  0
  6 12  2  0
  7 11  2  0
  7 20  1  0
  8 13  2  0
  8 19  1  0
  9 17  2  0
  9 22  1  0
 11 23  1  0
 13 16  1  0
 13 30  1  0
 15 17  1  0
 15 24  2  0
 16 18  1  0
 16 25  2  0
 17 31  1  0
 19 21  2  0
 19 32  1  0
 20 27  2  0
 20 33  1  0
 21 25  1  0
 21 34  1  0
 22 26  2  0
 22 35  1  0
 23 28  2  0
 23 36  1  0
 24 26  1  0
 24 37  1  0
 25 38  1  0
 26 39  1  0
 27 28  1  0
 27 40  1  0
 28 41  1  0
M  CHG  1  14  -1
M  END
> <activity>
0

$$$$
ligand_341
  SciTegic10272118463D

 44 46  0  0  1  0            999 V2000
    5.9438   28.2372   52.1624 N   0  0
    5.7625   27.2988   51.2035 C   0  0
    5.2622   29.3775   51.9262 C   0  0
    5.7637   25.7725   54.4703 S   0  0
    4.6086   27.6483   50.6331 N   0  0
    4.2451   29.0211   50.8485 C   0  0
    6.9049   28.0896   53.2647 C   0  0
    6.2438   27.6045   54.5770 C   0  0
    5.1072   25.6066   55.9948 O   0  0
    6.4476   26.3100   50.9487 O   0  0
    4.6568   25.6188   53.5222 O   0  0
    6.9795   24.9570   54.3615 O   0  0
    5.3890   30.4714   52.4821 O   0  0
    5.8452   25.2145   57.0834 C   0  0
    7.0827   24.5746   59.4777 C   0  0
    7.9059   24.1586   61.1236 Br  0  0
    2.8090   29.1903   51.4127 C   0  0
    4.4439   29.8893   49.5748 C   0  0
    5.1664   24.4719   58.0497 C   0  0
    7.1702   25.6064   57.3098 C   0  0
    5.7774   24.1582   59.2533 C   0  0
    7.7846   25.2926   58.5163 C   0  0
    1.7325   28.8856   50.3488 C   0  0
    3.3702   29.5764   48.5066 C   0  0
    1.9402   29.7213   49.0675 C   0  0
    4.1152   27.0579   49.9754 H   0  0
    7.6946   27.3921   52.9774 H   0  0
    7.4082   29.0414   53.4407 H   0  0
    6.8789   27.7650   55.4489 H   0  0
    5.3143   28.1423   54.7698 H   0  0
    2.6589   28.5583   52.2877 H   0  0
    2.6652   30.2156   51.7577 H   0  0
    5.4340   29.7339   49.1433 H   0  0
    4.3833   30.9483   49.8351 H   0  0
    4.1478   24.1581   57.8882 H   0  0
    7.7284   26.1669   56.5812 H   0  0
    5.2408   23.6042   60.0096 H   0  0
    8.7932   25.6162   58.7170 H   0  0
    0.7393   29.0728   50.7598 H   0  0
    1.7543   27.8228   50.0989 H   0  0
    3.5016   30.2166   47.6333 H   0  0
    3.5065   28.5579   48.1422 H   0  0
    1.2132   29.4275   48.3096 H   0  0
    1.7424   30.7731   49.2855 H   0  0
  1  2  1  0
  1  3  1  0
  1  7  1  0
  2  5  1  0
  2 10  2  0
  3  6  1  0
  3 13  2  0
  4  8  1  0
  4  9  1  0
  4 11  2  0
  4 12  2  0
  5  6  1  0
  5 26  1  0
  6 17  1  0
  6 18  1  0
  7  8  1  0
  7 27  1  0
  7 28  1  0
  8 29  1  0
  8 30  1  0
  9 14  1  0
 14 19  2  0
 14 20  1  0
 15 16  1  0
 15 21  2  0
 15 22  1  0
 17 23  1  0
 17 31  1  0
 17 32  1  0
 18 24  1  0
 18 33  1  0
 18 34  1  0
 19 21  1  0
 19 35  1  0
 20 22  2  0
 20 36  1  0
 21 37  1  0
 22 38  1  0
 23 25  1  0
 23 39  1  0
 23 40  1  0
 24 25  1  0
 24 41  1  0
 24 42  1  0
 25 43  1  0
 25 44  1  0
M  END
> <activity>
0

$$$$
ligand_342
  SciTegic10272118463D

 47 49  0  0  1  0            999 V2000
    5.4653   30.7060   51.8150 N   0  0
    3.9822   28.7627   51.7045 C   0  0
    4.3982   30.0265   51.2545 C   0  0
    4.6650   28.1916   52.8077 N   0  0
    5.1395   25.6792   55.3237 C   0  0
    4.5654   26.9538   53.3286 C   0  0
    5.9283   25.3574   56.5285 C   0  0
    5.3170   26.7681   54.5427 C   0  0
    7.2906   25.6632   56.6179 C   0  0
    5.3047   24.7619   57.6220 C   0  0
    3.9067   26.0453   52.8381 O   0  0
    7.1298   32.9442   52.2877 O   0  0
    7.9741   25.4910   57.8249 C   0  0
    5.9981   24.5565   58.8108 C   0  0
    7.3306   24.9378   58.9263 C   0  0
    5.1070   23.7651   60.2918 Br  0  0
    7.9331   26.0736   55.4755 O   0  0
    6.8058   30.7523   51.2322 C   0  0
    5.4082   31.3942   53.1032 C   0  0
    2.8841   28.1584   51.0741 C   0  0
    3.7170   30.6496   50.2111 C   0  0
    5.8471   32.8554   52.9058 C   0  0
    7.2495   32.2219   51.0656 C   0  0
    8.7087   27.2456   55.5770 C   0  0
    2.2308   28.7809   50.0202 C   0  0
    2.6467   30.0286   49.5883 C   0  0
    5.3332   28.8133   53.2341 H   0  0
    4.3840   24.9576   55.0518 H   0  0
    6.0400   27.5301   54.7927 H   0  0
    4.2587   24.5036   57.5794 H   0  0
    9.0194   25.7557   57.9002 H   0  0
    7.8666   24.7884   59.8523 H   0  0
    6.8161   30.2509   50.2648 H   0  0
    7.5088   30.2109   51.8664 H   0  0
    4.3926   31.3637   53.5017 H   0  0
    6.0417   30.8956   53.8383 H   0  0
    2.5045   27.1975   51.3822 H   0  0
    4.0267   31.6301   49.8763 H   0  0
    5.1063   33.3583   52.2904 H   0  0
    5.8730   33.3792   53.8601 H   0  0
    6.6607   32.7133   50.2896 H   0  0
    8.2859   32.2666   50.7332 H   0  0
    8.3042   27.9676   56.2879 H   0  0
    8.7068   27.7310   54.6020 H   0  0
    9.7234   26.9684   55.8669 H   0  0
    1.3956   28.2905   49.5400 H   0  0
    2.1359   30.5173   48.7721 H   0  0
  1  3  1  0
  1 18  1  0
  1 19  1  0
  2  3  2  0
  2  4  1  0
  2 20  1  0
  3 21  1  0
  4  6  1  0
  4 27  1  0
  5  7  1  0
  5  8  2  0
  5 28  1  0
  6  8  1  0
  6 11  2  0
  7  9  2  0
  7 10  1  0
  8 29  1  0
  9 13  1  0
  9 17  1  0
 10 14  2  0
 10 30  1  0
 12 22  1  0
 12 23  1  0
 13 15  2  0
 13 31  1  0
 14 15  1  0
 14 16  1  0
 15 32  1  0
 17 24  1  0
 18 23  1  0
 18 33  1  0
 18 34  1  0
 19 22  1  0
 19 35  1  0
 19 36  1  0
 20 25  2  0
 20 37  1  0
 21 26  2  0
 21 38  1  0
 22 39  1  0
 22 40  1  0
 23 41  1  0
 23 42  1  0
 24 43  1  0
 24 44  1  0
 24 45  1  0
 25 26  1  0
 25 46  1  0
 26 47  1  0
M  END
> <activity>
0

$$$$
ligand_343
  SciTegic10272118463D

 30 31  0  0  1  0            999 V2000
    6.8425   25.9784   53.6730 C   0  0
    6.2066   26.5558   52.6455 N   0  5
    6.7783   26.5582   51.4521 C   0  0
    6.1151   26.1695   54.8128 O   0  0
    7.9060   25.3481   53.7179 O   0  0
    6.1569   24.7913   58.2377 C   0  0
    6.5977   25.8088   56.0587 C   0  0
    5.7355   25.1505   56.9319 C   0  0
    5.9486   27.1155   50.2880 C   0  0
    7.9038   26.1581   51.1307 O   0  0
    7.4662   25.1507   58.6676 C   0  0
    8.3059   25.8568   57.7843 C   0  0
    7.8791   26.1615   56.4994 C   0  0
    6.3050   29.9755   50.7089 Br  0  0
    5.1118   28.3833   50.5665 C   0  0
    5.3005   24.1333   59.1512 C   0  0
    7.8797   24.8144   59.9753 C   0  0
    5.7312   23.8250   60.4378 C   0  0
    7.0176   24.1584   60.8434 C   0  0
    4.7187   24.9558   56.6254 H   0  0
    5.2987   26.3095   49.9420 H   0  0
    6.6340   27.3360   49.4697 H   0  0
    9.2894   26.1580   58.1121 H   0  0
    8.5438   26.7091   55.8476 H   0  0
    4.4080   28.5683   49.7540 H   0  0
    4.5306   28.3111   51.4875 H   0  0
    4.2982   23.8749   58.8426 H   0  0
    8.8747   25.0829   60.3027 H   0  0
    5.0627   23.3262   61.1249 H   0  0
    7.3547   23.9149   61.8398 H   0  0
  1  2  1  0
  1  4  1  0
  1  5  2  0
  2  3  1  0
  3  9  1  0
  3 10  2  0
  4  7  1  0
  6  8  1  0
  6 11  2  0
  6 16  1  0
  7  8  2  0
  7 13  1  0
  8 20  1  0
  9 15  1  0
  9 21  1  0
  9 22  1  0
 11 12  1  0
 11 17  1  0
 12 13  2  0
 12 23  1  0
 13 24  1  0
 14 15  1  0
 15 25  1  0
 15 26  1  0
 16 18  2  0
 16 27  1  0
 17 19  2  0
 17 28  1  0
 18 19  1  0
 18 29  1  0
 19 30  1  0
M  CHG  1   2  -1
M  END
> <activity>
0

$$$$
ligand_344
  SciTegic10272118463D

 39 40  0  0  1  0            999 V2000
    5.0593   29.8733   51.0615 C   0  0
    5.6577   31.0129   51.6065 C   0  0
    6.7060   30.5584   49.6559 N   0  0
    6.6445   31.3683   50.7151 N   0  0
    5.7615   29.6783   49.8660 C   0  0
    3.8903   29.0548   51.5995 C   0  0  2  0  0  0
    4.3053   27.8464   52.3216 N   0  0
    7.7734   25.8831   56.6802 C   0  0
    5.1059   27.7848   53.4028 C   0  0
    7.9351   25.4198   57.9839 C   0  0
    6.5458   25.7382   56.0278 C   0  0
    6.4346   26.2888   54.7629 O   0  0
    5.7321   28.7498   53.8424 O   0  0
    5.5060   25.0724   56.6905 C   0  0
    6.8956   24.7585   58.6261 C   0  0
    5.1590   26.4335   54.1277 C   0  0
    9.0959   26.6617   55.8878 Cl  0  0
    5.6838   24.5582   57.9737 C   0  0
    5.3996   31.7922   52.8808 C   0  0
    7.1324   24.1583   60.4156 Br  0  0
    7.5874   32.4732   50.8128 C   0  0
    2.9054   28.6646   50.4830 C   0  0
    5.5668   28.8915   49.1519 H   0  0
    3.3148   29.6726   52.2882 H   0  0
    3.7447   27.0300   52.1284 H   0  0
    8.8754   25.5641   58.4967 H   0  0
    4.5411   24.9581   56.2312 H   0  0
    4.3269   26.4744   54.8294 H   0  0
    4.9840   25.6001   53.4455 H   0  0
    4.8705   24.0542   58.4760 H   0  0
    4.6226   31.3332   53.4916 H   0  0
    5.0828   32.8143   52.6743 H   0  0
    6.2950   31.8490   53.5011 H   0  0
    8.2585   32.2958   51.6532 H   0  0
    7.0420   33.4036   50.9719 H   0  0
    8.1802   32.5582   49.9002 H   0  0
    2.0322   28.1495   50.8856 H   0  0
    3.3641   27.9980   49.7507 H   0  0
    2.5451   29.5446   49.9495 H   0  0
  1  2  2  0
  1  5  1  0
  1  6  1  0
  2  4  1  0
  2 19  1  0
  3  4  1  0
  3  5  2  0
  4 21  1  0
  5 23  1  0
  6  7  1  0
  6 22  1  0
  6 24  1  0
  7  9  1  0
  7 25  1  0
  8 10  2  0
  8 11  1  0
  8 17  1  0
  9 13  2  0
  9 16  1  0
 10 15  1  0
 10 26  1  0
 11 12  1  0
 11 14  2  0
 12 16  1  0
 14 18  1  0
 14 27  1  0
 15 18  2  0
 15 20  1  0
 16 28  1  0
 16 29  1  0
 18 30  1  0
 19 31  1  0
 19 32  1  0
 19 33  1  0
 21 34  1  0
 21 35  1  0
 21 36  1  0
 22 37  1  0
 22 38  1  0
 22 39  1  0
M  END
> <activity>
0

$$$$
ligand_345
  SciTegic10272118463D

 28 29  0  0  1  0            999 V2000
    6.5663   25.0015   57.6091 C   0  0
    7.0231   25.9042   55.3818 N   0  0
    6.2591   25.2742   56.1854 C   0  0
    6.6755   26.1098   54.0431 C   0  0
    7.7105   25.9267   53.1777 N   0  0
    7.7368   25.4276   58.2752 C   0  0
    5.6337   24.2720   58.3601 C   0  0
    7.9664   25.1288   59.6169 C   0  0
    5.8692   23.9789   59.7028 C   0  0
    5.4240   26.5714   53.6002 C   0  0
    7.0297   24.4033   60.3349 C   0  0
    7.5031   26.1581   51.8562 C   0  0
    4.6087   22.9582   60.6878 Br  0  0
    8.7059   26.1580   57.6470 O   0  0
    5.2236   26.8063   52.2370 C   0  0
    6.2796   26.5910   51.3480 C   0  0
    3.8784   27.2977   51.7383 C   0  0
    5.3016   24.8830   55.8487 H   0  0
    4.7136   23.9209   57.9132 H   0  0
    8.8693   25.4606   60.1104 H   0  0
    4.6261   26.7515   54.3056 H   0  0
    7.2036   24.1693   61.3752 H   0  0
    8.3411   25.9861   51.1955 H   0  0
    9.5268   26.1944   58.1455 H   0  0
    6.1598   26.7611   50.2891 H   0  0
    3.8857   27.4747   50.6618 H   0  0
    3.6039   28.2297   52.2337 H   0  0
    3.1057   26.5581   51.9471 H   0  0
  1  3  1  0
  1  6  2  0
  1  7  1  0
  2  3  2  0
  2  4  1  0
  3 18  1  0
  4  5  2  0
  4 10  1  0
  5 12  1  0
  6  8  1  0
  6 14  1  0
  7  9  2  0
  7 19  1  0
  8 11  2  0
  8 20  1  0
  9 11  1  0
  9 13  1  0
 10 15  2  0
 10 21  1  0
 11 22  1  0
 12 16  2  0
 12 23  1  0
 14 24  1  0
 15 16  1  0
 15 17  1  0
 16 25  1  0
 17 26  1  0
 17 27  1  0
 17 28  1  0
M  END
> <activity>
0

$$$$
ligand_346
  SciTegic10272118463D

 35 37  0  0  1  0            999 V2000
    6.9144   27.2416   54.1573 C   0  0
    6.8182   27.0223   51.9083 N   0  0
    7.2854   26.4136   53.0193 C   0  0
    6.3698   28.4548   53.5745 C   0  0
    6.3063   28.2780   52.2022 C   0  0
    7.0663   26.9604   55.4007 N   0  0
    5.7962   29.2927   51.3734 C   0  0
    5.9373   29.6569   54.1388 C   0  0
    7.5071   25.7130   55.8683 N   0  0
    7.9059   25.3580   53.0880 O   0  0
    5.3919   30.4995   51.9460 C   0  0
    5.4700   30.6913   53.3263 C   0  0
    5.6115   29.1120   49.4880 Br  0  0
    6.9267   26.3795   50.5973 C   0  0
    7.3630   25.3564   57.2123 C   0  0
    5.0447   32.0111   53.9414 C   0  0
    8.3036   25.7574   58.1576 C   0  0
    6.2748   24.5931   57.6241 C   0  0
    6.1348   24.2184   58.9559 C   0  0
    8.1796   25.3643   59.4862 C   0  0
    7.0929   24.5973   59.8868 C   0  0
    7.5538   25.0074   55.1442 H   0  0
    6.0007   29.8152   55.2002 H   0  0
    5.0141   31.2885   51.3124 H   0  0
    7.4076   25.4001   50.6415 H   0  0
    7.5058   26.9975   49.9115 H   0  0
    5.9295   26.2329   50.1828 H   0  0
    4.3060   32.5199   53.3199 H   0  0
    5.9057   32.6686   54.0561 H   0  0
    4.5976   31.8575   54.9247 H   0  0
    9.1487   26.3580   57.8546 H   0  0
    5.5190   24.2994   56.9118 H   0  0
    5.2812   23.6335   59.2667 H   0  0
    8.9251   25.6653   60.2084 H   0  0
    6.9891   24.3029   60.9214 H   0  0
  1  3  1  0
  1  4  1  0
  1  6  2  0
  2  3  1  0
  2  5  1  0
  2 14  1  0
  3 10  2  0
  4  5  2  0
  4  8  1  0
  5  7  1  0
  6  9  1  0
  7 11  2  0
  7 13  1  0
  8 12  2  0
  8 23  1  0
  9 15  1  0
  9 22  1  0
 11 12  1  0
 11 24  1  0
 12 16  1  0
 14 25  1  0
 14 26  1  0
 14 27  1  0
 15 17  2  0
 15 18  1  0
 16 28  1  0
 16 29  1  0
 16 30  1  0
 17 20  1  0
 17 31  1  0
 18 19  2  0
 18 32  1  0
 19 21  1  0
 19 33  1  0
 20 21  2  0
 20 34  1  0
 21 35  1  0
M  END
> <activity>
0

$$$$
ligand_347
  SciTegic10272118463D

 37 39  0  0  1  0            999 V2000
    5.7718   27.3015   51.6384 C   0  0
    6.6831   26.4769   53.4794 N   0  0
    7.4812   26.0778   52.4816 N   0  0
    5.6672   27.2861   53.0390 C   0  0
    6.9201   26.5303   51.3771 C   0  0
    4.9913   27.9028   50.6905 N   0  0
    3.8586   28.2719   51.1269 N   0  0
    6.9155   26.0696   54.8086 C   0  0
    1.0343   30.4076   50.1422 C   0  0
    1.8927   29.5790   50.8564 C   0  0
    1.3259   30.7099   48.8093 C   0  0
    3.0533   29.0539   50.2861 C   0  0
    5.9631   25.2883   55.4716 C   0  0
    8.0418   26.5291   55.4881 C   0  0
    2.4617   30.1741   48.2057 C   0  0
    4.7232   27.9496   54.0164 C   0  0
   -0.3642   31.0439   50.9407 Cl  0  0
    7.2995   25.3868   57.4761 C   0  0
    0.3035   31.7577   47.8885 Cl  0  0
    3.3201   29.3588   48.9411 C   0  0
    7.5060   26.1567   50.0322 C   0  0
    6.1531   24.9580   56.8124 C   0  0
    8.2431   26.1724   56.8188 C   0  0
    7.5600   24.9258   59.3046 Br  0  0
    1.6661   29.3539   51.8868 H   0  0
    5.0719   24.9585   54.9573 H   0  0
    8.7187   27.2025   54.9956 H   0  0
    2.6864   30.4021   47.1737 H   0  0
    3.9059   27.2871   54.2873 H   0  0
    4.3057   28.8671   53.6077 H   0  0
    5.2193   28.2405   54.9421 H   0  0
    4.2029   28.9668   48.4639 H   0  0
    8.3023   25.4154   50.1044 H   0  0
    7.9061   27.0064   49.4895 H   0  0
    6.7398   25.7365   49.3848 H   0  0
    5.4127   24.3804   57.3462 H   0  0
    9.1056   26.5431   57.3523 H   0  0
  1  4  2  0
  1  5  1  0
  1  6  1  0
  2  3  1  0
  2  4  1  0
  2  8  1  0
  3  5  2  0
  4 16  1  0
  5 21  1  0
  6  7  2  0
  7 12  1  0
  8 13  2  0
  8 14  1  0
  9 10  2  0
  9 11  1  0
  9 17  1  0
 10 12  1  0
 10 25  1  0
 11 15  2  0
 11 19  1  0
 12 20  2  0
 13 22  1  0
 13 26  1  0
 14 23  2  0
 14 27  1  0
 15 20  1  0
 15 28  1  0
 16 29  1  0
 16 30  1  0
 16 31  1  0
 18 22  2  0
 18 23  1  0
 18 24  1  0
 20 32  1  0
 21 33  1  0
 21 34  1  0
 21 35  1  0
 22 36  1  0
 23 37  1  0
M  END
> <activity>
0

$$$$
ligand_348
  SciTegic10272118463D

 38 39  0  0  1  0            999 V2000
    6.4998   26.0271   55.7683 C   0  0
    7.9063   25.7762   56.7356 S   0  0
    5.4171   25.3593   56.3218 C   0  0
    5.7226   24.6954   57.5167 C   0  0
    7.0632   24.7846   57.8857 C   0  0
    6.5891   26.8086   54.5634 C   0  0
    6.7040   30.6539   49.6067 N   0  0
    5.6002   30.9629   51.5388 N   0  0
    5.7785   30.1922   50.4147 C   0  0
    7.1144   31.7674   50.1851 C   0  0
    6.4790   32.0029   51.3906 C   0  0
    7.6730   27.1288   54.0645 O   0  0
    5.3987   27.2090   54.0905 N   0  0
    4.4259   23.7558   58.5425 Br  0  0
    4.7096   30.7218   52.6616 C   0  0
    7.7999   24.1637   59.0584 C   0  0
    5.2759   29.6370   53.6048 C   0  0
    5.2096   28.2014   53.0413 C   0  0
    8.2049   25.1722   60.1473 C   0  0
    7.0123   25.6986   60.9511 C   0  0
    4.4277   25.3593   55.8872 H   0  0
    5.1971   29.2919   50.2728 H   0  0
    7.8897   32.3824   49.7474 H   0  0
    6.5712   32.7819   52.1315 H   0  0
    4.5602   26.8548   54.5296 H   0  0
    3.7253   30.4486   52.2766 H   0  0
    4.5843   31.6602   53.2033 H   0  0
    8.7049   23.6953   58.6882 H   0  0
    7.2209   23.3581   59.5097 H   0  0
    4.7063   29.6726   54.5339 H   0  0
    6.3016   29.8749   53.8905 H   0  0
    5.9409   28.0650   52.2408 H   0  0
    4.2301   28.0250   52.5967 H   0  0
    8.7556   26.0060   59.7088 H   0  0
    8.8994   24.6879   60.8338 H   0  0
    7.3269   26.4441   61.6815 H   0  0
    6.5068   24.8943   61.4848 H   0  0
    6.2850   26.1579   60.2907 H   0  0
  1  2  1  0
  1  3  2  0
  1  6  1  0
  2  5  1  0
  3  4  1  0
  3 21  1  0
  4  5  2  0
  4 14  1  0
  5 16  1  0
  6 12  2  0
  6 13  1  0
  7  9  2  0
  7 10  1  0
  8  9  1  0
  8 11  1  0
  8 15  1  0
  9 22  1  0
 10 11  2  0
 10 23  1  0
 11 24  1  0
 13 18  1  0
 13 25  1  0
 15 17  1  0
 15 26  1  0
 15 27  1  0
 16 19  1  0
 16 28  1  0
 16 29  1  0
 17 18  1  0
 17 30  1  0
 17 31  1  0
 18 32  1  0
 18 33  1  0
 19 20  1  0
 19 34  1  0
 19 35  1  0
 20 36  1  0
 20 37  1  0
 20 38  1  0
M  END
> <activity>
0

$$$$
ligand_349
  SciTegic10272118463D

 31 33  0  0  1  0            999 V2000
    6.1379   28.3167   53.6870 N   0  0
    5.5500   28.6824   52.5357 N   0  0
    4.7818   27.6630   52.0031 C   0  0
    4.9105   26.6204   52.9025 C   0  0
    5.7592   27.0792   53.9182 C   0  0
    6.2120   26.3600   55.1404 C   0  0
    5.7998   29.9786   52.0369 C   0  0
    4.0780   27.7580   50.8326 N   0  0
    5.3054   25.5716   55.8517 C   0  0
    7.5202   26.5094   55.6122 C   0  0
    6.9905   25.1271   57.5142 C   0  0
    5.6920   24.9581   57.0405 C   0  0
    7.9061   25.8971   56.8024 C   0  0
    7.5056   24.3260   59.1622 Br  0  0
    6.3042   30.1439   50.7501 C   0  0
    5.5851   31.0969   52.8451 C   0  0
    6.6243   31.4159   50.2894 C   0  0
    5.8970   32.3670   52.3742 C   0  0
    6.4246   32.5270   51.0992 C   0  0
    4.4514   25.6463   52.8325 H   0  0
    3.4099   28.5076   50.7175 H   0  0
    3.8293   26.9152   50.3226 H   0  0
    4.2878   25.4627   55.5057 H   0  0
    8.2271   27.1285   55.0791 H   0  0
    4.9795   24.3719   57.6001 H   0  0
    8.9071   26.0358   57.1848 H   0  0
    6.4702   29.2831   50.1182 H   0  0
    5.1920   30.9786   53.8453 H   0  0
    7.0312   31.5460   49.2978 H   0  0
    5.7417   33.2310   53.0042 H   0  0
    6.6808   33.5132   50.7389 H   0  0
  1  2  1  0
  1  5  2  0
  2  3  1  0
  2  7  1  0
  3  4  2  0
  3  8  1  0
  4  5  1  0
  4 20  1  0
  5  6  1  0
  6  9  2  0
  6 10  1  0
  7 15  2  0
  7 16  1  0
  8 21  1  0
  8 22  1  0
  9 12  1  0
  9 23  1  0
 10 13  2  0
 10 24  1  0
 11 12  2  0
 11 13  1  0
 11 14  1  0
 12 25  1  0
 13 26  1  0
 15 17  1  0
 15 27  1  0
 16 18  2  0
 16 28  1  0
 17 19  2  0
 17 29  1  0
 18 19  1  0
 18 30  1  0
 19 31  1  0
M  END
> <activity>
0

$$$$
ligand_350
  SciTegic10272118463D

 37 39  0  0  1  0            999 V2000
    5.3397   27.2291   51.1801 C   0  0
    5.6206   28.1381   52.1618 C   0  0
    3.7363   29.5017   51.1882 C   0  0
    4.7916   29.4176   52.3190 C   0  0  2  0  0  0
    4.3076   27.3578   50.2893 N   0  0
    3.5736   28.5159   50.2885 C   0  0
    5.6015   30.6871   52.3116 C   0  0
    7.0920   26.4308   52.2370 N   0  0
    6.2024   26.1901   51.1863 O   0  0
    6.7042   27.5488   52.8307 C   0  0
    2.9994   30.7120   50.9810 C   0  0
    2.4236   31.6734   50.6895 N   0  0
    6.5346   30.9602   51.3028 C   0  0
    5.2452   31.6809   53.2141 C   0  0
    2.7037   28.5432   49.2315 N   0  0
    7.1075   32.2191   51.2096 C   0  0
    5.7647   32.9513   53.0868 C   0  0
    6.8550   30.0281   50.3748 F   0  0
    6.7109   33.2130   52.0937 C   0  0
    5.1070   34.2757   54.2897 Br  0  0
    7.4266   28.0567   54.0705 C   0  0
    7.8834   26.9742   55.0797 C   0  0
    6.7743   26.0161   55.5512 C   0  0
    4.3050   29.3442   53.2880 H   0  0
    4.0402   26.6028   49.6672 H   0  0
    4.5084   31.4992   53.9784 H   0  0
    2.4695   27.6880   48.7474 H   0  0
    2.1177   29.3487   49.0661 H   0  0
    7.8349   32.4295   50.4392 H   0  0
    7.1835   34.1593   51.9933 H   0  0
    8.3021   28.6273   53.7646 H   0  0
    6.7942   28.7751   54.5940 H   0  0
    8.7054   26.3951   54.6571 H   0  0
    8.3072   27.4732   55.9525 H   0  0
    7.1494   25.3406   56.3205 H   0  0
    6.4000   25.3989   54.7340 H   0  0
    5.9248   26.5539   55.9712 H   0  0
  1  2  2  0
  1  5  1  0
  1  9  1  0
  2  4  1  0
  2 10  1  0
  3  4  1  0
  3  6  2  0
  3 11  1  0
  4  7  1  0
  4 24  1  0
  5  6  1  0
  5 25  1  0
  6 15  1  0
  7 13  2  0
  7 14  1  0
  8  9  1  0
  8 10  2  0
 10 21  1  0
 11 12  3  0
 13 16  1  0
 13 18  1  0
 14 17  2  0
 14 26  1  0
 15 27  1  0
 15 28  1  0
 16 19  2  0
 16 29  1  0
 17 19  1  0
 17 20  1  0
 19 30  1  0
 21 22  1  0
 21 31  1  0
 21 32  1  0
 22 23  1  0
 22 33  1  0
 22 34  1  0
 23 35  1  0
 23 36  1  0
 23 37  1  0
M  END
> <activity>
0

$$$$
ligand_351
  SciTegic10272118463D

 25 26  0  0  1  0            999 V2000
    7.2071   26.0154   55.2175 N   0  3
    6.1598   26.5907   54.6224 C   0  0
    7.1300   25.6787   56.6156 C   0  0
    8.3059   25.7585   54.6521 O   0  5
    5.6425   27.6698   50.5052 N   0  0
    6.0393   24.9582   57.1232 C   0  0
    8.2019   26.0208   57.4476 C   0  0
    6.0228   26.9328   53.2064 C   0  0
    7.1171   24.8895   59.2772 C   0  0
    6.0399   24.5578   58.4579 C   0  0
    8.1901   25.6277   58.7830 C   0  0
    7.1357   24.3167   61.0878 Br  0  0
    6.7128   26.9341   50.8847 C   0  0
    4.7478   28.0187   51.4616 C   0  0
    4.8992   27.6687   52.8037 C   0  0
    6.9397   26.5549   52.2081 C   0  0
    5.3241   26.8201   55.2695 H   0  0
    5.2057   24.6983   56.4927 H   0  0
    9.0533   26.5579   57.0553 H   0  0
    5.2109   23.9915   58.8549 H   0  0
    9.0185   25.8753   59.4323 H   0  0
    7.4044   26.6459   50.1057 H   0  0
    3.8907   28.5888   51.1316 H   0  0
    4.1518   27.9831   53.5172 H   0  0
    7.8144   25.9628   52.4134 H   0  0
  1  2  2  0
  1  3  1  0
  1  4  1  0
  2  8  1  0
  2 17  1  0
  3  6  2  0
  3  7  1  0
  5 13  1  0
  5 14  2  0
  6 10  1  0
  6 18  1  0
  7 11  2  0
  7 19  1  0
  8 15  2  0
  8 16  1  0
  9 10  2  0
  9 11  1  0
  9 12  1  0
 10 20  1  0
 11 21  1  0
 13 16  2  0
 13 22  1  0
 14 15  1  0
 14 23  1  0
 15 24  1  0
 16 25  1  0
M  CHG  2   1   1   4  -1
M  END
> <activity>
0

$$$$
ligand_352
  SciTegic10272118463D

 38 40  0  0  1  0            999 V2000
    6.8327   26.6193   55.0691 C   0  0
    7.8092   26.2503   56.1351 C   0  0
    7.1935   25.4898   57.2911 C   0  0
    5.5609   26.1399   55.0936 C   0  0
    5.1060   25.3580   56.1212 N   0  0
    5.8691   25.0261   57.2385 C   0  0
    7.3541   27.6105   54.0201 C   0  0
    6.8305   27.2921   52.6049 N   0  3
    7.9062   25.2389   58.4692 C   0  0
    8.9980   26.5580   56.1190 O   0  0
    5.2765   24.3262   58.2885 C   0  0
    6.7686   27.0656   49.7912 O   0  0
    7.3174   24.5344   59.5199 C   0  0
    6.0058   24.0869   59.4413 C   0  0
    4.4673   26.4518   54.0882 C   0  0
    8.3061   24.1582   61.0909 Br  0  0
    7.6802   26.2194   51.8939 C   0  0
    6.5575   28.5338   51.7292 C   0  0
    5.9331   28.0405   50.4108 C   0  0
    7.0086   25.8868   50.5515 C   0  0
    4.1313   25.0925   56.1302 H   0  0
    8.4383   27.6913   53.9371 H   0  0
    6.9692   28.6011   54.2724 H   0  0
    5.9247   26.8726   52.7638 H   0  0
    8.9168   25.5992   58.5891 H   0  0
    4.2510   23.9946   58.2381 H   0  0
    5.5579   23.5559   60.2693 H   0  0
    3.4983   26.1596   54.4703 H   0  0
    4.6116   25.8822   53.1700 H   0  0
    4.4189   27.5178   53.8628 H   0  0
    7.7166   25.3580   52.5608 H   0  0
    8.6824   26.6259   51.7577 H   0  0
    5.8725   29.1813   52.2802 H   0  0
    7.5012   29.0552   51.5730 H   0  0
    4.9424   27.6133   50.5832 H   0  0
    5.7956   28.8746   49.7218 H   0  0
    6.0663   25.3581   50.7091 H   0  0
    7.6550   25.2318   49.9659 H   0  0
  1  2  1  0
  1  4  2  0
  1  7  1  0
  2  3  1  0
  2 10  2  0
  3  6  2  0
  3  9  1  0
  4  5  1  0
  4 15  1  0
  5  6  1  0
  5 21  1  0
  6 11  1  0
  7  8  1  0
  7 22  1  0
  7 23  1  0
  8 17  1  0
  8 18  1  0
  8 24  1  0
  9 13  2  0
  9 25  1  0
 11 14  2  0
 11 26  1  0
 12 19  1  0
 12 20  1  0
 13 14  1  0
 13 16  1  0
 14 27  1  0
 15 28  1  0
 15 29  1  0
 15 30  1  0
 17 20  1  0
 17 31  1  0
 17 32  1  0
 18 19  1  0
 18 33  1  0
 18 34  1  0
 19 35  1  0
 19 36  1  0
 20 37  1  0
 20 38  1  0
M  CHG  1   8   1
M  END
> <activity>
0

$$$$
ligand_353
  SciTegic10272118463D

 45 49  0  0  1  0            999 V2000
    6.8247   27.2892   54.1249 C   0  0
    5.7371   29.1982   53.2670 C   0  0
    6.0565   27.8043   53.0813 C   0  0
    6.3061   29.6734   54.4747 C   0  0
    7.5055   28.5584   55.0871 S   0  0
    4.9581   30.1385   52.5506 C   0  0
    6.0587   30.8560   55.0478 N   0  0
    7.1518   25.9204   54.5169 C   0  0
    5.2788   31.7130   54.3522 C   0  0
    4.7710   31.4153   53.0940 C   0  0
    4.9232   33.0283   55.0360 C   0  0
    4.0544   33.0500   56.2847 C   0  0
    5.5088   33.3970   56.3892 C   0  0
    4.3244   29.8429   51.2650 C   0  0
    7.1624   25.6104   55.9800 C   0  0
    5.5528   27.0337   52.0678 N   0  0
    7.2756   25.0325   53.6774 O   0  0
    5.1171   29.7843   50.1248 C   0  0
    2.9335   29.7428   51.1723 C   0  0
    6.0594   24.9566   56.5337 C   0  0
    8.2300   25.9841   56.8067 C   0  0
    3.1235   29.6936   48.7953 C   0  0
    7.1093   25.0009   58.7014 C   0  0
    4.5078   29.7198   48.8854 C   0  0
    6.0402   24.6308   57.8891 C   0  0
    2.3252   29.6626   49.9296 C   0  0
    8.1932   25.6938   58.1686 C   0  0
    7.0921   24.5604   60.5532 Br  0  0
    2.3193   29.7879   47.0975 Br  0  0
    4.1632   32.1424   52.5749 H   0  0
    4.7927   33.8576   54.3383 H   0  0
    3.3146   33.8429   56.3948 H   0  0
    3.7106   32.0990   56.6955 H   0  0
    6.1656   32.6990   56.9101 H   0  0
    5.8381   34.4259   56.5166 H   0  0
    4.7294   27.3168   51.5515 H   0  0
    5.8269   26.0649   51.9723 H   0  0
    6.1916   29.8644   50.1992 H   0  0
    2.3178   29.7791   52.0570 H   0  0
    5.2182   24.6742   55.9144 H   0  0
    9.0932   26.4984   56.4062 H   0  0
    5.1059   29.7575   47.9879 H   0  0
    5.1935   24.1058   58.3097 H   0  0
    1.2488   29.6295   49.8458 H   0  0
    9.0189   25.9756   58.8057 H   0  0
  1  3  2  0
  1  5  1  0
  1  8  1  0
  2  3  1  0
  2  4  2  0
  2  6  1  0
  3 16  1  0
  4  5  1  0
  4  7  1  0
  6 10  2  0
  6 14  1  0
  7  9  2  0
  8 15  1  0
  8 17  2  0
  9 10  1  0
  9 11  1  0
 10 30  1  0
 11 12  1  0
 11 13  1  0
 11 31  1  0
 12 13  1  0
 12 32  1  0
 12 33  1  0
 13 34  1  0
 13 35  1  0
 14 18  2  0
 14 19  1  0
 15 20  2  0
 15 21  1  0
 16 36  1  0
 16 37  1  0
 18 24  1  0
 18 38  1  0
 19 26  2  0
 19 39  1  0
 20 25  1  0
 20 40  1  0
 21 27  2  0
 21 41  1  0
 22 24  2  0
 22 26  1  0
 22 29  1  0
 23 25  2  0
 23 27  1  0
 23 28  1  0
 24 42  1  0
 25 43  1  0
 26 44  1  0
 27 45  1  0
M  END
> <activity>
0

$$$$
ligand_354
  SciTegic10272118463D

 42 43  0  0  1  0            999 V2000
    7.4799   25.5534   55.0537 C   0  0
    6.7063   25.5801   56.2084 C   0  0
    7.3717   25.5076   57.4161 O   0  0
    6.8782   25.6417   53.8027 C   0  0
    6.8317   24.9587   58.5649 C   0  0
    6.7083   33.3578   51.4880 Br  0  0
    7.7068   25.7583   52.7029 O   0  0
    4.7028   25.7575   54.8545 C   0  0
    5.3243   25.7602   56.0906 C   0  0
    5.4800   25.6564   53.7150 C   0  0
    5.1060   32.4814   50.6860 C   0  0
    7.2140   26.4522   51.5490 C   0  0
    5.6855   24.1573   58.6008 C   0  0
    7.5056   25.2027   59.7575 C   0  0
    5.4906   31.1046   50.1332 C   0  0
    6.7305   27.8759   51.9081 C   0  0
    6.3032   28.7446   50.7251 C   0  0
    5.9232   30.1393   51.2377 C   0  0
    7.0354   24.6812   60.9560 C   0  0
    5.2001   23.6528   59.7948 C   0  0
    5.8794   23.9090   60.9695 C   0  0
    8.5536   25.5020   55.1368 H   0  0
    3.6286   25.8416   54.7825 H   0  0
    4.7060   25.8859   56.9643 H   0  0
    4.9832   25.6663   52.7575 H   0  0
    4.7209   33.1199   49.8927 H   0  0
    4.3371   32.4098   51.4564 H   0  0
    6.4263   25.8757   51.0612 H   0  0
    8.0327   26.5104   50.8317 H   0  0
    5.1578   23.8768   57.7052 H   0  0
    8.4053   25.8028   59.7530 H   0  0
    4.6363   30.6780   49.6061 H   0  0
    6.2961   31.2160   49.4039 H   0  0
    7.5060   28.3796   52.4803 H   0  0
    5.8791   27.8422   52.5835 H   0  0
    5.4549   28.2879   50.2124 H   0  0
    7.1060   28.8169   49.9946 H   0  0
    6.7751   30.5595   51.7750 H   0  0
    5.1176   30.0514   51.9699 H   0  0
    7.5678   24.8789   61.8764 H   0  0
    4.3091   23.0408   59.8062 H   0  0
    5.4996   23.4898   61.8879 H   0  0
  1  2  2  0
  1  4  1  0
  1 22  1  0
  2  3  1  0
  2  9  1  0
  3  5  1  0
  4  7  1  0
  4 10  2  0
  5 13  2  0
  5 14  1  0
  6 11  1  0
  7 12  1  0
  8  9  2  0
  8 10  1  0
  8 23  1  0
  9 24  1  0
 10 25  1  0
 11 15  1  0
 11 26  1  0
 11 27  1  0
 12 16  1  0
 12 28  1  0
 12 29  1  0
 13 20  1  0
 13 30  1  0
 14 19  2  0
 14 31  1  0
 15 18  1  0
 15 32  1  0
 15 33  1  0
 16 17  1  0
 16 34  1  0
 16 35  1  0
 17 18  1  0
 17 36  1  0
 17 37  1  0
 18 38  1  0
 18 39  1  0
 19 21  1  0
 19 40  1  0
 20 21  2  0
 20 41  1  0
 21 42  1  0
M  END
> <activity>
0

$$$$
ligand_355
  SciTegic10272118463D

 36 37  0  0  1  0            999 V2000
    7.1423   25.8097   56.7237 C   0  0
    6.7279   27.0880   54.6480 N   0  0
    7.5543   26.3438   55.4359 C   0  0
    5.6632   24.9580   57.0004 S   0  0
    7.9294   25.7358   57.8637 C   0  0
    7.3518   25.0293   58.9241 C   0  0
    6.0593   24.5580   58.6489 C   0  0
    4.9427   27.1356   52.5159 O   0  0
    7.1931   27.5745   53.3249 C   0  0
    5.3273   27.4317   54.9142 C   0  0
    8.7060   26.1296   55.0880 O   0  0
    6.3159   26.8870   52.2471 C   0  0  2  0  0  0
    4.4982   26.7456   53.8086 C   0  0  2  0  0  0
    8.3058   24.7712   60.5527 Br  0  0
    5.0271   23.7998   59.4736 C   0  0
    4.4048   25.2173   53.9383 C   0  0
    6.5839   27.3875   50.8255 C   0  0
    5.1703   23.9141   60.9976 C   0  0
    8.9222   26.1580   57.9215 H   0  0
    8.2484   27.3800   53.1317 H   0  0
    7.0607   28.6561   53.2785 H   0  0
    4.9715   27.1686   55.9054 H   0  0
    5.2157   28.5130   54.8247 H   0  0
    6.4890   25.8089   52.2618 H   0  0
    3.5060   27.1521   53.8880 H   0  0
    4.0361   24.1751   59.2177 H   0  0
    5.0099   22.7476   59.1947 H   0  0
    3.9043   24.7715   53.0873 H   0  0
    3.8445   24.9580   54.8297 H   0  0
    5.3832   24.7430   54.0078 H   0  0
    5.7852   27.0673   50.1580 H   0  0
    7.5086   26.9788   50.4293 H   0  0
    6.6321   28.4757   50.7808 H   0  0
    4.3060   23.4797   61.4996 H   0  0
    5.2417   24.9543   61.3184 H   0  0
    6.0441   23.3761   61.3628 H   0  0
  1  3  1  0
  1  4  1  0
  1  5  2  0
  2  3  1  0
  2  9  1  0
  2 10  1  0
  3 11  2  0
  4  7  1  0
  5  6  1  0
  5 19  1  0
  6  7  2  0
  6 14  1  0
  7 15  1  0
  8 12  1  0
  8 13  1  0
  9 12  1  0
  9 20  1  0
  9 21  1  0
 10 13  1  0
 10 22  1  0
 10 23  1  0
 12 17  1  0
 12 24  1  0
 13 16  1  0
 13 25  1  0
 15 18  1  0
 15 26  1  0
 15 27  1  0
 16 28  1  0
 16 29  1  0
 16 30  1  0
 17 31  1  0
 17 32  1  0
 17 33  1  0
 18 34  1  0
 18 35  1  0
 18 36  1  0
M  END
> <activity>
0

$$$$
ligand_356
  SciTegic10272118463D

 68 73  0  0  1  0            999 V2000
    5.1636   30.9281   50.8229 C   0  0
    3.8909   30.8246   51.2208 C   0  0
    5.4833   30.4421   49.4882 C   0  0
    6.4079   31.3360   51.6519 C   0  0  2  0  0  0
    4.5125   29.7579   48.7602 O   0  0
    2.8289   30.2177   50.4207 C   0  0
    3.1891   29.7886   49.1504 C   0  0
    7.4236   30.1469   51.6949 C   0  0
    6.8735   28.7514   51.9041 C   0  0
    6.5915   28.0273   50.8770 N   0  0
    6.5758   30.5581   48.9590 O   0  0
    6.8961   28.3436   53.2938 C   0  0
    6.1806   26.6747   50.8949 N   0  0
    6.1202   32.1025   52.9632 C   0  0
    7.1016   26.8468   55.6246 C   0  0
    7.2163   26.0188   56.8750 C   0  0
    3.5062   31.3954   52.2887 O   0  5
    5.7328   28.0308   53.9800 C   0  0
    8.1291   28.1462   53.9043 C   0  0
    8.2440   27.3716   55.0346 C   0  0
    5.8443   27.2467   55.1096 C   0  0
    6.1800   25.1876   57.3359 C   0  0
    8.3461   26.1581   57.6876 C   0  0
    7.3686   24.8065   59.3828 C   0  0
    5.9103   25.8975   52.0102 C   0  0
    6.2599   24.5613   58.5808 C   0  0
    8.4107   25.5867   58.9397 C   0  0
    7.5031   24.1565   61.1435 Br  0  0
    1.5226   30.0516   50.8507 C   0  0
    2.2205   29.3976   48.2387 C   0  0
    5.9052   33.4733   52.8945 C   0  0
    5.9058   31.4742   54.1928 C   0  0
    6.9372   25.3581   52.7675 C   0  0
    4.6011   25.7582   52.4272 C   0  0
    0.5504   29.7580   49.9325 C   0  0
    0.8879   29.4411   48.6255 C   0  0
    5.4457   32.1710   55.3021 C   0  0
    5.4096   34.1630   53.9940 C   0  0
    4.3070   25.0331   53.5702 C   0  0
    6.6447   24.5908   53.8881 C   0  0
    5.3274   24.4179   54.2856 C   0  0
    5.1772   33.5227   55.1993 C   0  0
    6.9113   32.0939   51.0447 H   0  0
    7.9058   30.1623   50.7333 H   0  0
    8.2944   30.1851   52.2881 H   0  0
    5.8581   26.3290   50.0107 H   0  0
    4.7583   28.2618   53.5700 H   0  0
    9.0352   28.5413   53.4882 H   0  0
    9.2319   27.1784   55.4175 H   0  0
    4.9326   26.9451   55.6015 H   0  0
    5.2617   25.0826   56.7814 H   0  0
    9.1816   26.7751   57.4128 H   0  0
    5.4403   23.9608   58.9474 H   0  0
    9.2691   25.7604   59.5721 H   0  0
    1.2506   30.1579   51.8860 H   0  0
    2.4921   29.1023   47.2364 H   0  0
    6.0389   34.0009   51.9619 H   0  0
    6.0516   30.4250   54.3072 H   0  0
    7.9602   25.5098   52.4636 H   0  0
    3.8076   26.2381   51.8740 H   0  0
   -0.4759   29.7583   50.2708 H   0  0
    0.1087   29.2022   47.9222 H   0  0
    5.2637   31.6540   56.2313 H   0  0
    5.1866   35.2147   53.9001 H   0  0
    3.2818   24.9582   53.8842 H   0  0
    7.4463   24.1599   54.4574 H   0  0
    5.1060   23.7581   55.0896 H   0  0
    4.7884   34.0679   56.0473 H   0  0
  1  2  2  0
  1  3  1  0
  1  4  1  0
  2  6  1  0
  2 17  1  0
  3  5  1  0
  3 11  2  0
  4  8  1  0
  4 14  1  0
  4 43  1  0
  5  7  1  0
  6  7  2  0
  6 29  1  0
  7 30  1  0
  8  9  1  0
  8 44  1  0
  8 45  1  0
  9 10  2  0
  9 12  1  0
 10 13  1  0
 12 18  1  0
 12 19  2  0
 13 25  1  0
 13 46  1  0
 14 31  2  0
 14 32  1  0
 15 16  1  0
 15 20  2  0
 15 21  1  0
 16 22  2  0
 16 23  1  0
 18 21  2  0
 18 47  1  0
 19 20  1  0
 19 48  1  0
 20 49  1  0
 21 50  1  0
 22 26  1  0
 22 51  1  0
 23 27  2  0
 23 52  1  0
 24 26  2  0
 24 27  1  0
 24 28  1  0
 25 33  2  0
 25 34  1  0
 26 53  1  0
 27 54  1  0
 29 35  2  0
 29 55  1  0
 30 36  2  0
 30 56  1  0
 31 38  1  0
 31 57  1  0
 32 37  2  0
 32 58  1  0
 33 40  1  0
 33 59  1  0
 34 39  2  0
 34 60  1  0
 35 36  1  0
 35 61  1  0
 36 62  1  0
 37 42  1  0
 37 63  1  0
 38 42  2  0
 38 64  1  0
 39 41  1  0
 39 65  1  0
 40 41  2  0
 40 66  1  0
 41 67  1  0
 42 68  1  0
M  CHG  1  17  -1
M  END
> <activity>
0

$$$$
ligand_357
  SciTegic10272118463D

 23 24  0  0  1  0            999 V2000
    7.9060   25.8645   54.3611 N   0  0
    6.8404   25.8611   55.1741 N   0  0
    6.0447   26.2742   53.1412 C   0  0
    7.4395   26.1048   53.1595 C   0  0
    5.6880   26.1146   54.4704 C   0  0
    6.9840   25.6008   56.5561 C   0  0
    8.1163   26.0379   57.2526 C   0  0
    5.9898   24.8899   57.2323 C   0  0
    8.2753   26.1582   52.0808 O   0  0
    7.2779   24.9971   59.2560 C   0  0
    5.1432   26.5599   51.9612 C   0  0
    6.1472   24.5581   58.5742 C   0  0
    8.2478   25.7578   58.6101 C   0  0
    7.5057   24.5580   61.0880 Br  0  0
    4.7287   26.1560   54.9650 H   0  0
    8.9034   26.5694   56.7404 H   0  0
    5.1061   24.5627   56.7172 H   0  0
    7.7559   26.2678   51.2805 H   0  0
    4.1020   26.6870   52.2590 H   0  0
    5.1676   25.7492   51.2315 H   0  0
    5.4375   27.4704   51.4384 H   0  0
    5.3891   23.9826   59.0850 H   0  0
    9.1059   26.1080   59.1612 H   0  0
  1  2  1  0
  1  4  2  0
  2  5  1  0
  2  6  1  0
  3  4  1  0
  3  5  2  0
  3 11  1  0
  4  9  1  0
  5 15  1  0
  6  7  2  0
  6  8  1  0
  7 13  1  0
  7 16  1  0
  8 12  2  0
  8 17  1  0
  9 18  1  0
 10 12  1  0
 10 13  2  0
 10 14  1  0
 11 19  1  0
 11 20  1  0
 11 21  1  0
 12 22  1  0
 13 23  1  0
M  END
> <activity>
0

$$$$
ligand_358
  SciTegic10272118463D

 39 40  0  0  1  0            999 V2000
    6.0857   29.2936   51.9265 N   0  0
    6.2089   31.6343   51.7226 C   0  0
    6.3688   30.3299   51.0872 C   0  0
    5.6742   29.4054   53.2373 C   0  0
    5.5061   30.5783   53.7504 N   0  0
    5.7424   31.6997   53.0002 C   0  0
    6.7072   30.1551   49.9174 O   0  0
    6.7064   33.2427   50.6880 Br  0  0
    5.4273   28.2669   54.0508 N   0  0
    7.2571   25.8450   55.9088 C   0  0
    5.4850   32.9741   53.7853 C   0  0
    6.7919   24.8803   58.5011 C   0  0
    8.1300   26.1580   56.9515 C   0  0
    6.1507   25.0259   56.1744 C   0  0
    5.9154   24.5583   57.4668 C   0  0
    7.9041   25.6825   58.2415 C   0  0
    7.5681   26.3825   54.6722 O   0  0
    5.3637   26.8949   53.5559 C   0  0
    6.5262   24.3471   59.9036 C   0  0
    6.7304   26.1671   53.5324 C   0  0
    5.5116   25.1916   60.6887 C   0  0
    6.1929   28.3769   51.5248 H   0  0
    5.1095   28.4223   54.9974 H   0  0
    4.4095   33.1278   53.8831 H   0  0
    5.9052   33.8558   53.3007 H   0  0
    5.9058   32.9090   54.7892 H   0  0
    8.9947   26.7731   56.7547 H   0  0
    5.4647   24.7386   55.3947 H   0  0
    5.0506   23.9416   57.6626 H   0  0
    8.5961   25.9344   59.0335 H   0  0
    4.6567   26.3553   54.1837 H   0  0
    4.9104   26.8658   52.5633 H   0  0
    6.1630   23.3225   59.8240 H   0  0
    7.4625   24.2780   60.4609 H   0  0
    6.5910   25.0991   53.3568 H   0  0
    7.2891   26.5182   52.6640 H   0  0
    5.2493   24.6990   61.6229 H   0  0
    4.5796   25.3305   60.1409 H   0  0
    5.9118   26.1771   60.9237 H   0  0
  1  3  1  0
  1  4  1  0
  1 22  1  0
  2  3  1  0
  2  6  2  0
  2  8  1  0
  3  7  2  0
  4  5  2  0
  4  9  1  0
  5  6  1  0
  6 11  1  0
  9 18  1  0
  9 23  1  0
 10 13  1  0
 10 14  2  0
 10 17  1  0
 11 24  1  0
 11 25  1  0
 11 26  1  0
 12 15  2  0
 12 16  1  0
 12 19  1  0
 13 16  2  0
 13 27  1  0
 14 15  1  0
 14 28  1  0
 15 29  1  0
 16 30  1  0
 17 20  1  0
 18 20  1  0
 18 31  1  0
 18 32  1  0
 19 21  1  0
 19 33  1  0
 19 34  1  0
 20 35  1  0
 20 36  1  0
 21 37  1  0
 21 38  1  0
 21 39  1  0
M  END
> <activity>
0

$$$$
ligand_359
  SciTegic10272118463D

 62 63  0  0  1  0            999 V2000
    6.2509   30.9117   50.8641 S   0  0
    6.0300   30.5211   52.6000 N   0  0
    5.6785   29.1163   52.7519 N   0  0
    6.4527   28.2311   53.4166 C   0  0
    4.6140   30.6905   50.1804 C   0  0
    6.6330   32.3205   50.7212 O   0  0
    7.1020   29.8636   50.2867 O   0  0
    5.5878   31.4359   53.6011 C   0  0
    5.9763   26.7480   53.5265 C   0  0
    7.5160   28.5543   53.9448 O   0  0
    4.2916   29.4817   49.5559 C   0  0
    3.6645   31.7048   50.2862 C   0  0
    5.5008   30.9901   54.9228 C   0  0
    5.2353   32.7744   53.3482 C   0  0
    4.4885   33.0456   55.6227 C   0  0
    4.8339   26.5506   52.6904 O   0  0
    4.7043   33.5817   54.3559 C   0  0
    4.9239   31.7656   55.9143 C   0  0
    3.0216   29.2967   49.0228 C   0  0
    2.3935   31.5183   49.7511 C   0  0
    2.0775   30.3183   49.1152 C   0  0
    3.5130   33.9785   56.9607 Br  0  0
    7.0671   25.7586   53.0108 C   0  0
    5.4876   26.4183   54.9858 C   0  0
    0.7069   30.1108   48.5138 C   0  0
    7.7877   26.0850   51.6804 C   0  0
    6.4066   25.6209   55.9520 C   0  0
    7.7457   26.2748   56.3734 C   0  0
    6.8953   26.1110   50.4318 C   0  0
    7.7014   25.8755   49.1510 C   0  0
    8.1654   25.8914   57.8004 C   0  0
    4.7695   28.8539   52.3939 H   0  0
    5.0158   28.6871   49.4767 H   0  0
    3.9095   32.6406   50.7614 H   0  0
    5.8082   29.9963   55.1919 H   0  0
    5.3250   33.2189   52.3729 H   0  0
    4.6403   25.6136   52.6534 H   0  0
    4.3929   34.5920   54.1325 H   0  0
    4.7644   31.3625   56.9044 H   0  0
    2.7808   28.3594   48.5402 H   0  0
    1.6623   32.3104   49.8243 H   0  0
    6.6605   24.7495   52.9880 H   0  0
    7.8664   25.7063   53.7411 H   0  0
    5.1590   27.3311   55.4875 H   0  0
    4.5716   25.8260   54.9316 H   0  0
    0.1204   31.0302   48.5080 H   0  0
    0.1658   29.3553   49.0813 H   0  0
    0.8085   29.7659   47.4898 H   0  0
    8.5873   25.3587   51.5407 H   0  0
    8.3059   27.0336   51.7637 H   0  0
    5.8113   25.4446   56.8519 H   0  0
    6.5999   24.6246   55.5537 H   0  0
    8.5513   25.9813   55.7043 H   0  0
    7.6965   27.3583   56.2850 H   0  0
    6.3732   27.0669   50.3767 H   0  0
    6.1134   25.3583   50.5201 H   0  0
    7.0606   25.7580   48.2875 H   0  0
    8.3040   24.9695   49.2169 H   0  0
    8.3662   26.7109   48.9485 H   0  0
    9.1076   26.3664   58.0735 H   0  0
    8.3021   24.8139   57.9040 H   0  0
    7.4180   26.1946   58.5344 H   0  0
  1  2  1  0
  1  5  1  0
  1  6  2  0
  1  7  2  0
  2  3  1  0
  2  8  1  0
  3  4  1  0
  3 32  1  0
  4  9  1  0
  4 10  2  0
  5 11  2  0
  5 12  1  0
  8 13  2  0
  8 14  1  0
  9 16  1  0
  9 23  1  0
  9 24  1  0
 11 19  1  0
 11 33  1  0
 12 20  2  0
 12 34  1  0
 13 18  1  0
 13 35  1  0
 14 17  2  0
 14 36  1  0
 15 17  1  0
 15 18  2  0
 15 22  1  0
 16 37  1  0
 17 38  1  0
 18 39  1  0
 19 21  2  0
 19 40  1  0
 20 21  1  0
 20 41  1  0
 21 25  1  0
 23 26  1  0
 23 42  1  0
 23 43  1  0
 24 27  1  0
 24 44  1  0
 24 45  1  0
 25 46  1  0
 25 47  1  0
 25 48  1  0
 26 29  1  0
 26 49  1  0
 26 50  1  0
 27 28  1  0
 27 51  1  0
 27 52  1  0
 28 31  1  0
 28 53  1  0
 28 54  1  0
 29 30  1  0
 29 55  1  0
 29 56  1  0
 30 57  1  0
 30 58  1  0
 30 59  1  0
 31 60  1  0
 31 61  1  0
 31 62  1  0
M  END
> <activity>
0

$$$$
ligand_360
  SciTegic10272118463D

 26 28  0  0  1  0            999 V2000
    6.5530   26.0197   54.1382 C   0  0
    7.3437   25.7506   55.2180 N   0  0
    6.4192   25.4909   56.1800 N   0  0
    5.1170   25.5314   55.8234 N   0  0
    5.1967   25.8793   54.5160 C   0  0
    6.8873   26.3944   52.8237 C   0  0
    5.8432   26.6568   51.9264 C   0  0
    4.1694   26.1012   53.5964 C   0  0
    4.5117   26.5134   52.3106 C   0  0
    6.7847   25.2220   57.5260 C   0  0
    8.7058   26.5575   52.2878 Br  0  0
    6.1118   27.0938   50.6317 N   0  0
    7.9598   25.7511   58.0656 C   0  0
    5.9519   24.4583   58.3529 C   0  0
    6.2900   24.2245   59.6807 C   0  0
    8.3000   25.5060   59.3906 C   0  0
    7.4668   24.7464   60.1991 C   0  0
    3.1382   25.9713   53.8845 H   0  0
    3.7240   26.7078   51.5953 H   0  0
    7.0788   27.3221   50.4439 H   0  0
    5.3820   27.6445   50.1995 H   0  0
    8.6232   26.3527   57.4617 H   0  0
    5.0275   24.0466   57.9733 H   0  0
    5.6368   23.6376   60.3102 H   0  0
    9.2141   25.9128   59.7996 H   0  0
    7.7329   24.5680   61.2326 H   0  0
  1  2  2  0
  1  5  1  0
  1  6  1  0
  2  3  1  0
  3  4  1  0
  3 10  1  0
  4  5  2  0
  5  8  1  0
  6  7  2  0
  6 11  1  0
  7  9  1  0
  7 12  1  0
  8  9  2  0
  8 18  1  0
  9 19  1  0
 10 13  2  0
 10 14  1  0
 12 20  1  0
 12 21  1  0
 13 16  1  0
 13 22  1  0
 14 15  2  0
 14 23  1  0
 15 17  1  0
 15 24  1  0
 16 17  2  0
 16 25  1  0
 17 26  1  0
M  END
> <activity>
0

$$$$
ligand_361
  SciTegic10272118463D

 54 56  0  0  1  0            999 V2000
    3.3916   28.4925   51.2454 C   0  0
    4.8296   30.4383   51.0813 C   0  0
    5.6462   28.4109   52.1113 N   0  0
    4.4445   27.8376   51.9271 C   0  0
    5.8259   29.6642   51.6810 C   0  0
    3.5863   29.8294   50.8017 C   0  0
    2.0858   27.8538   51.0880 C   0  0
    5.1273   31.8496   50.8422 C   0  0
    5.3991   32.9580   50.6880 N   0  0
    1.0466   27.3603   50.9824 N   0  0
    4.3060   26.2349   52.6880 S   0  0
    2.4853   30.5789   50.1064 C   0  0
    6.2230   25.9740   54.7316 C   0  0
    6.5881   25.6810   56.1565 C   0  0
    4.7629   26.3976   54.4552 C   0  0
    7.1060   30.1307   51.8880 N   0  0
    7.0735   26.0255   53.8391 O   0  0
    1.9223   31.7152   50.6880 C   0  0
    1.9401   30.0966   48.9129 C   0  0
    5.7303   24.9580   56.9998 C   0  0
    7.8476   26.0636   56.6397 C   0  0
    7.3700   25.0092   58.7573 C   0  0
    0.2574   31.8386   48.9402 C   0  0
    8.2188   25.7580   57.9475 C   0  0
    6.1304   24.5953   58.2831 C   0  0
    0.8276   30.7132   48.3536 C   0  0
    0.7984   32.3173   50.1346 C   0  0
    7.8998   24.5580   60.5279 Br  0  0
   -0.8444   32.3908   48.3105 O   0  0
   -1.4864   33.5249   48.8911 C   0  0
   -2.8121   33.7881   48.1591 C   0  0
   -3.5042   35.1108   48.5532 C   0  0
   -2.7408   36.3872   48.1644 C   0  0
    4.6078   27.4229   54.7906 H   0  0
    4.0844   25.7606   55.0184 H   0  0
    7.7467   29.5164   52.3643 H   0  0
    7.3640   31.0662   51.6098 H   0  0
    2.3357   32.1190   51.5984 H   0  0
    2.3416   29.2069   48.4477 H   0  0
    4.7477   24.6504   56.6880 H   0  0
    8.5375   26.6169   56.0173 H   0  0
    9.1725   26.0864   58.3301 H   0  0
    5.4678   24.0264   58.9193 H   0  0
    0.3703   30.2804   47.4880 H   0  0
    0.3761   33.1713   50.6406 H   0  0
   -0.8168   34.3822   48.8171 H   0  0
   -1.7071   33.3587   49.9470 H   0  0
   -3.4868   32.9566   48.3640 H   0  0
   -2.6567   33.7580   47.0842 H   0  0
   -3.6940   35.1201   49.6273 H   0  0
   -4.4845   35.1488   48.0749 H   0  0
   -3.3029   37.2743   48.4580 H   0  0
   -2.5864   36.4466   47.0880 H   0  0
   -1.7671   36.4487   48.6497 H   0  0
  1  4  2  0
  1  6  1  0
  1  7  1  0
  2  5  1  0
  2  6  2  0
  2  8  1  0
  3  4  1  0
  3  5  2  0
  4 11  1  0
  5 16  1  0
  6 12  1  0
  7 10  3  0
  8  9  3  0
 11 15  1  0
 12 18  2  0
 12 19  1  0
 13 14  1  0
 13 15  1  0
 13 17  2  0
 14 20  2  0
 14 21  1  0
 15 34  1  0
 15 35  1  0
 16 36  1  0
 16 37  1  0
 18 27  1  0
 18 38  1  0
 19 26  2  0
 19 39  1  0
 20 25  1  0
 20 40  1  0
 21 24  2  0
 21 41  1  0
 22 24  1  0
 22 25  2  0
 22 28  1  0
 23 26  1  0
 23 27  2  0
 23 29  1  0
 24 42  1  0
 25 43  1  0
 26 44  1  0
 27 45  1  0
 29 30  1  0
 30 31  1  0
 30 46  1  0
 30 47  1  0
 31 32  1  0
 31 48  1  0
 31 49  1  0
 32 33  1  0
 32 50  1  0
 32 51  1  0
 33 52  1  0
 33 53  1  0
 33 54  1  0
M  END
> <activity>
0

$$$$
ligand_362
  SciTegic10272118463D

 48 48  0  0  1  0            999 V2000
    5.1908   27.5460   52.4561 C   0  0
    7.6269   26.1017   56.2841 C   0  0
    7.7664   25.6038   57.5749 C   0  0
    6.7003   24.9458   58.1909 C   0  0
    3.4931   29.4050   50.5987 C   0  0
    4.3080   27.3388   51.4518 N   0  0
    6.4195   25.9934   55.5928 C   0  0
    4.1940   28.2669   50.4124 N   0  0
    6.1662   31.3052   50.5111 C   0  0
    6.3508   26.5359   54.3231 O   0  0
    6.0289   28.4529   52.4630 O   0  0
    5.4987   24.8137   57.4922 C   0  0
    2.6553   29.5701   51.4871 O   0  0
    6.6956   30.3845   49.8881 O   0  0
    5.3472   25.3579   56.2216 C   0  0
    5.0970   26.5716   53.6352 C   0  0
    9.1060   26.9650   55.4880 Br  0  0
    6.7958   24.3790   59.6136 C   0  0
    3.8054   30.5529   49.6325 C   0  0
    4.6745   31.6608   50.2880 C   0  0
    6.8548   32.0547   51.4152 O   0  0
    8.2279   24.2831   60.1812 C   0  0
    5.8781   25.1326   60.5921 C   0  0
    6.3090   33.1587   52.1321 C   0  0
    5.6273   32.7163   53.4395 C   0  0
    8.7111   25.7350   58.0806 H   0  0
    3.6171   26.6030   51.4095 H   0  0
    4.8769   28.1329   49.6824 H   0  0
    4.6548   24.3188   57.9517 H   0  0
    4.3869   25.2732   55.7384 H   0  0
    4.3079   26.9539   54.2856 H   0  0
    4.8168   25.5712   53.2993 H   0  0
    6.4210   23.3581   59.5489 H   0  0
    2.8665   30.9800   49.2784 H   0  0
    4.2935   30.1532   48.7416 H   0  0
    4.2114   31.9428   51.2307 H   0  0
    4.6464   32.5562   49.6681 H   0  0
    8.2443   23.7401   61.1266 H   0  0
    8.6586   25.2683   60.3679 H   0  0
    8.8864   23.7585   59.4908 H   0  0
    5.8681   24.6385   61.5594 H   0  0
    4.8429   25.1638   60.2503 H   0  0
    6.2124   26.1583   60.7452 H   0  0
    5.6267   33.7355   51.5093 H   0  0
    7.1339   33.8321   52.3631 H   0  0
    5.2877   33.5837   54.0055 H   0  0
    6.3110   32.1550   54.0751 H   0  0
    4.7617   32.0787   53.2651 H   0  0
  1  6  1  0
  1 11  2  0
  1 16  1  0
  2  3  2  0
  2  7  1  0
  2 17  1  0
  3  4  1  0
  3 26  1  0
  4 12  2  0
  4 18  1  0
  5  8  1  0
  5 13  2  0
  5 19  1  0
  6  8  1  0
  6 27  1  0
  7 10  1  0
  7 15  2  0
  8 28  1  0
  9 14  2  0
  9 20  1  0
  9 21  1  0
 10 16  1  0
 12 15  1  0
 12 29  1  0
 15 30  1  0
 16 31  1  0
 16 32  1  0
 18 22  1  0
 18 23  1  0
 18 33  1  0
 19 20  1  0
 19 34  1  0
 19 35  1  0
 20 36  1  0
 20 37  1  0
 21 24  1  0
 22 38  1  0
 22 39  1  0
 22 40  1  0
 23 41  1  0
 23 42  1  0
 23 43  1  0
 24 25  1  0
 24 44  1  0
 24 45  1  0
 25 46  1  0
 25 47  1  0
 25 48  1  0
M  END
> <activity>
0

$$$$
ligand_363
  SciTegic10272118463D

 56 60  0  0  1  0            999 V2000
    2.9830   29.3173   49.9293 C   0  0
    3.5401   29.4796   51.1482 C   0  0
    2.1562   31.1772   50.6162 N   0  0
    4.2979   28.3421   51.4464 C   0  0
    2.1391   30.3823   49.5148 C   0  0
    3.1829   30.8177   51.6014 C   0  0  2  0  0  0
    4.3053   27.5630   50.3946 N   0  0
    3.5064   28.1580   49.4887 N   0  0
    5.1282   27.9804   52.6280 C   0  0
    4.4016   31.7228   51.6377 C   0  0
    4.7047   26.9418   53.4603 C   0  0
    6.6765   33.3164   51.8515 C   0  0
    6.3673   28.5789   52.8718 C   0  0
    6.5128   32.4773   50.7546 C   0  0
    5.7305   33.3183   52.8851 C   0  0
    1.5467   32.5016   50.6240 C   0  0
    5.3523   31.7290   50.6144 C   0  0
    4.6242   32.4808   52.7769 C   0  0
    5.5170   26.4781   54.5005 C   0  0
    7.1940   28.1046   53.8872 C   0  0
    0.0359   32.5741   50.6423 C   0  0
    6.7918   27.0372   54.6914 C   0  0
    1.5464   30.5427   48.4482 O   0  0
   -0.6418   31.7444   51.4781 O   0  0
   -0.8506   33.4534   50.0427 C   0  0
   -1.9340   32.1593   51.4860 C   0  0
   -2.0979   33.2127   50.6041 C   0  0
    7.9059   32.2813   49.4887 Br  0  0
    7.7578   34.1493   51.8880 O   0  0
    6.8124   29.6067   52.0929 O   0  0
    5.9044   34.1583   53.9617 O   0  0
    4.9955   25.3550   55.3773 C   0  0
    7.7603   26.4935   55.7365 C   0  0
    5.1826   33.9267   55.1651 C   0  0
    2.7457   30.7768   52.5845 H   0  0
    3.3426   27.7323   48.5824 H   0  0
    3.7465   26.4754   53.2771 H   0  0
    1.9617   33.0667   51.4627 H   0  0
    1.8916   32.9579   49.6954 H   0  0
    5.2314   31.0977   49.7468 H   0  0
    3.9091   32.4296   53.5744 H   0  0
    8.1636   28.5577   54.0300 H   0  0
   -0.6017   34.2345   49.3392 H   0  0
   -2.6028   31.6365   52.1525 H   0  0
   -2.9990   33.7682   50.4038 H   0  0
    7.5855   34.8760   52.5059 H   0  0
    6.1400   29.9077   51.4787 H   0  0
    5.3198   25.4488   56.4125 H   0  0
    5.3344   24.3946   54.9905 H   0  0
    3.9058   25.3579   55.3909 H   0  0
    7.3037   26.4397   56.7240 H   0  0
    8.6539   27.1127   55.8258 H   0  0
    8.0774   25.4872   55.4613 H   0  0
    5.6026   34.5544   55.9473 H   0  0
    5.2702   32.8915   55.4997 H   0  0
    4.1287   34.1868   55.0562 H   0  0
  1  2  2  0
  1  5  1  0
  1  8  1  0
  2  4  1  0
  2  6  1  0
  3  5  1  0
  3  6  1  0
  3 16  1  0
  4  7  2  0
  4  9  1  0
  5 23  2  0
  6 10  1  0
  6 35  1  0
  7  8  1  0
  8 36  1  0
  9 11  2  0
  9 13  1  0
 10 17  2  0
 10 18  1  0
 11 19  1  0
 11 37  1  0
 12 14  2  0
 12 15  1  0
 12 29  1  0
 13 20  2  0
 13 30  1  0
 14 17  1  0
 14 28  1  0
 15 18  2  0
 15 31  1  0
 16 21  1  0
 16 38  1  0
 16 39  1  0
 17 40  1  0
 18 41  1  0
 19 22  2  0
 19 32  1  0
 20 22  1  0
 20 42  1  0
 21 24  1  0
 21 25  2  0
 22 33  1  0
 24 26  1  0
 25 27  1  0
 25 43  1  0
 26 27  2  0
 26 44  1  0
 27 45  1  0
 29 46  1  0
 30 47  1  0
 31 34  1  0
 32 48  1  0
 32 49  1  0
 32 50  1  0
 33 51  1  0
 33 52  1  0
 33 53  1  0
 34 54  1  0
 34 55  1  0
 34 56  1  0
M  END
> <activity>
0

$$$$
ligand_364
  SciTegic10272118463D

 59 61  0  0  1  0            999 V2000
    4.8357   28.9785   51.9334 C   0  0  2  0  0  0
    5.1647   28.8327   50.4491 C   0  0
    4.6423   30.5135   52.0049 C   0  0  2  0  0  0
    5.8636   28.3573   52.8963 C   0  0
    3.8614   30.7275   50.6650 C   0  0
    4.5553   29.8462   49.7748 O   0  0
    5.9618   31.3715   52.2560 C   0  0  2  0  0  0
    5.6920   32.7618   52.8807 C   0  0
    5.3765   27.4988   53.8071 N   0  0
    5.1133   32.8915   54.2579 C   0  0
    5.9032   28.0256   49.8886 O   0  0
    7.0585   28.6405   52.8320 O   0  0
    5.9057   33.7557   52.2054 O   0  0
    5.5056   32.0667   55.3202 C   0  0
    4.2593   33.9698   54.5217 C   0  0
    4.1353   33.3519   56.8433 C   0  0
    3.8686   32.1555   50.0807 C   0  0
    2.3831   30.2505   50.7087 C   0  0
    6.1603   26.8484   54.8494 C   0  0
    3.7176   34.1570   55.7905 C   0  0
    5.0402   32.3256   56.6110 C   0  0
    7.0132   31.3327   51.0740 C   0  0
    3.5060   33.6773   58.6150 Br  0  0
    5.2827   25.9949   55.7908 C   0  0
    7.3636   26.0169   54.3462 C   0  0
    8.0759   32.4364   50.9194 C   0  0
    8.2041   25.5066   55.5157 C   0  0
    6.0907   25.3705   56.9445 C   0  0
    7.3541   24.6403   56.4594 C   0  0
    3.9001   28.4506   52.1143 H   0  0
    3.9551   30.7241   52.8264 H   0  0
    6.4757   30.9002   53.0838 H   0  0
    4.3864   27.3047   53.8104 H   0  0
    6.2113   31.2616   55.1758 H   0  0
    3.9658   34.6486   53.7360 H   0  0
    3.3589   32.1747   49.1156 H   0  0
    4.8584   32.5666   49.9103 H   0  0
    3.3438   32.8420   50.7452 H   0  0
    1.8853   30.4061   49.7484 H   0  0
    1.8292   30.8075   51.4573 H   0  0
    2.2621   29.1932   50.9387 H   0  0
    6.5637   27.6744   55.4394 H   0  0
    3.0109   34.9577   55.9638 H   0  0
    5.3884   31.7582   57.4547 H   0  0
    7.5492   30.3869   51.1269 H   0  0
    6.5213   31.2962   50.1082 H   0  0
    4.4759   26.6016   56.2052 H   0  0
    4.7994   25.2014   55.2174 H   0  0
    8.0156   26.5988   53.6983 H   0  0
    7.0077   25.1819   53.7392 H   0  0
    8.7066   32.2090   50.0646 H   0  0
    8.7063   32.5552   51.7945 H   0  0
    7.6416   33.4004   50.6839 H   0  0
    9.0269   24.9444   55.0880 H   0  0
    8.6449   26.3416   56.0628 H   0  0
    5.4564   24.6971   57.5226 H   0  0
    6.4064   26.1568   57.6291 H   0  0
    7.9076   24.3101   57.3340 H   0  0
    7.1027   23.7417   55.9114 H   0  0
  1  2  1  0
  1  3  1  0
  1  4  1  0
  1 30  1  0
  2  6  1  0
  2 11  2  0
  3  5  1  0
  3  7  1  0
  3 31  1  0
  4  9  1  0
  4 12  2  0
  5  6  1  0
  5 17  1  0
  5 18  1  0
  7  8  1  0
  7 22  1  0
  7 32  1  0
  8 10  1  0
  8 13  2  0
  9 19  1  0
  9 33  1  0
 10 14  2  0
 10 15  1  0
 14 21  1  0
 14 34  1  0
 15 20  2  0
 15 35  1  0
 16 20  1  0
 16 21  2  0
 16 23  1  0
 17 36  1  0
 17 37  1  0
 17 38  1  0
 18 39  1  0
 18 40  1  0
 18 41  1  0
 19 24  1  0
 19 25  1  0
 19 42  1  0
 20 43  1  0
 21 44  1  0
 22 26  1  0
 22 45  1  0
 22 46  1  0
 24 28  1  0
 24 47  1  0
 24 48  1  0
 25 27  1  0
 25 49  1  0
 25 50  1  0
 26 51  1  0
 26 52  1  0
 26 53  1  0
 27 29  1  0
 27 54  1  0
 27 55  1  0
 28 29  1  0
 28 56  1  0
 28 57  1  0
 29 58  1  0
 29 59  1  0
M  END
> <activity>
0

$$$$
ligand_365
  SciTegic10272118463D

 42 45  0  0  1  0            999 V2000
    5.9860   27.6716   53.2006 C   0  0
    6.0998   28.9193   52.2665 C   0  0  2  0  0  0
    4.8732   26.8911   53.1019 C   0  0
    5.9042   30.3209   52.8841 C   0  0
    3.9706   28.1496   51.2378 C   0  0
    3.9059   27.1874   52.1886 N   0  0
    5.2140   28.6638   51.1017 N   0  0
    7.1004   27.4608   54.1607 C   0  0
    6.1145   31.4835   52.0946 C   0  0
    5.5060   30.4758   54.2267 C   0  0
    5.9057   32.7653   52.6233 C   0  0
    5.3246   31.7617   54.7244 C   0  0
    5.5043   32.8657   53.9465 C   0  0
    7.3452   25.4592   57.2230 C   0  0
    4.9477   32.1454   55.9728 O   0  0
    5.2447   33.9855   54.6712 O   0  0
    6.8912   26.4964   55.0875 O   0  0
    6.2124   24.7139   57.1105 O   0  0
    3.0276   28.4687   50.5220 O   0  0
    4.9994   33.5463   55.9799 C   0  0
    8.1364   28.1223   54.1095 O   0  0
    7.7158   25.5232   58.5580 C   0  0
    5.8591   24.3184   58.3592 C   0  0
    6.7750   24.7912   59.2837 C   0  0
    7.9295   26.0346   55.9522 C   0  0
    6.7061   31.3688   50.2864 Br  0  0
    4.5305   25.6306   53.8955 C   0  0
    7.1062   28.9469   51.8477 H   0  0
    3.0293   26.6912   52.2002 H   0  0
    5.3337   29.2780   50.3103 H   0  0
    5.3263   29.6208   54.8586 H   0  0
    6.0652   33.6457   52.0176 H   0  0
    4.0603   33.9599   56.3492 H   0  0
    5.7965   33.8867   56.6441 H   0  0
    8.5762   26.0398   58.9597 H   0  0
    4.9619   23.7235   58.4379 H   0  0
    6.7607   24.6310   60.3524 H   0  0
    8.6304   26.8347   56.1975 H   0  0
    8.5003   25.2712   55.4245 H   0  0
    3.6713   25.0920   53.4916 H   0  0
    4.3105   25.8838   54.9327 H   0  0
    5.3619   24.9264   53.8810 H   0  0
  1  2  1  0
  1  3  2  0
  1  8  1  0
  2  4  1  0
  2  7  1  0
  2 28  1  0
  3  6  1  0
  3 27  1  0
  4  9  2  0
  4 10  1  0
  5  6  1  0
  5  7  1  0
  5 19  2  0
  6 29  1  0
  7 30  1  0
  8 17  1  0
  8 21  2  0
  9 11  1  0
  9 26  1  0
 10 12  2  0
 10 31  1  0
 11 13  2  0
 11 32  1  0
 12 13  1  0
 12 15  1  0
 13 16  1  0
 14 18  1  0
 14 22  2  0
 14 25  1  0
 15 20  1  0
 16 20  1  0
 17 25  1  0
 18 23  1  0
 20 33  1  0
 20 34  1  0
 22 24  1  0
 22 35  1  0
 23 24  2  0
 23 36  1  0
 24 37  1  0
 25 38  1  0
 25 39  1  0
 27 40  1  0
 27 41  1  0
 27 42  1  0
M  END
> <activity>
0

$$$$
ligand_366
  SciTegic10272118463D

 46 49  0  0  1  0            999 V2000
    5.8695   27.5729   51.9766 N   0  0
    5.3915   28.3286   50.9293 C   0  0
    6.1682   28.1523   49.8880 N   0  0
    6.9490   26.8521   51.4400 C   0  0
    5.4265   27.5187   53.2371 N   0  0
    7.1040   27.1646   50.1429 N   0  0
    6.1291   26.6845   54.0430 C   0  0
    7.6372   25.9810   52.2873 C   0  0
    4.1717   29.1761   50.8941 C   0  0
    7.2077   25.8952   53.6107 C   0  0
    5.6486   26.6979   55.3227 O   0  0
    7.0075   24.5933   58.6249 C   0  0
    4.2783   30.5383   50.6046 C   0  0
    2.9151   28.5855   51.0476 C   0  0
    7.8730   25.5023   57.9872 C   0  0
    5.7654   24.3309   58.0432 C   0  0
    6.1968   25.9379   56.3185 C   0  0
    1.8757   30.7048   50.5646 C   0  0
    7.3958   23.8630   59.9235 C   0  0  2  0  0  0
    5.3515   25.0369   56.9300 C   0  0
    7.4826   26.1570   56.8216 C   0  0
    1.7642   29.3511   50.8755 C   0  0
    3.1281   31.3057   50.4443 C   0  0
    0.3073   31.7468   50.2867 Br  0  0
    6.3700   23.9444   61.0877 C   0  0
    8.7533   24.3093   60.4952 C   0  0
    4.9542   23.3632   60.9160 C   0  0
    8.4518   25.3790   51.9087 H   0  0
    7.7017   25.2165   54.2887 H   0  0
    5.2496   30.9960   50.4788 H   0  0
    2.8283   27.5264   51.2504 H   0  0
    8.8493   25.7324   58.3844 H   0  0
    5.0849   23.6025   58.4455 H   0  0
    7.5060   22.8168   59.6500 H   0  0
    4.3409   24.9580   56.5634 H   0  0
    8.1336   26.8866   56.3628 H   0  0
    0.7906   28.8919   50.9654 H   0  0
    3.2057   32.3571   50.2079 H   0  0
    6.2954   24.9685   61.4584 H   0  0
    6.8184   23.3612   61.8873 H   0  0
    9.5612   24.1585   59.7841 H   0  0
    9.0227   23.7572   61.3950 H   0  0
    8.7277   25.3665   60.7619 H   0  0
    4.4865   23.1989   61.8874 H   0  0
    4.9631   22.4029   60.3998 H   0  0
    4.2962   24.0501   60.3840 H   0  0
  1  2  1  0
  1  4  1  0
  1  5  1  0
  2  3  2  0
  2  9  1  0
  3  6  1  0
  4  6  2  0
  4  8  1  0
  5  7  2  0
  7 10  1  0
  7 11  1  0
  8 10  2  0
  8 28  1  0
  9 13  2  0
  9 14  1  0
 10 29  1  0
 11 17  1  0
 12 15  2  0
 12 16  1  0
 12 19  1  0
 13 23  1  0
 13 30  1  0
 14 22  2  0
 14 31  1  0
 15 21  1  0
 15 32  1  0
 16 20  2  0
 16 33  1  0
 17 20  1  0
 17 21  2  0
 18 22  1  0
 18 23  2  0
 18 24  1  0
 19 25  1  0
 19 26  1  0
 19 34  1  0
 20 35  1  0
 21 36  1  0
 22 37  1  0
 23 38  1  0
 25 27  1  0
 25 39  1  0
 25 40  1  0
 26 41  1  0
 26 42  1  0
 26 43  1  0
 27 44  1  0
 27 45  1  0
 27 46  1  0
M  END
> <activity>
0

$$$$
ligand_367
  SciTegic10272118463D

 36 37  0  0  1  0            999 V2000
    6.4698   25.2888   57.1530 C   0  0
    6.1374   30.7891   50.4259 C   0  0
    6.7081   31.7459   50.9258 C   0  0
    6.2440   25.7539   55.8477 N   0  0
    6.3508   26.5265   51.5960 C   0  0
    5.5350   24.5579   57.8922 C   0  0
    5.7488   27.7686   51.3734 C   0  0
    7.7042   25.6021   57.7414 C   0  0
    6.1125   25.8332   52.7809 C   0  0
    4.9251   28.3151   52.3709 C   0  0
    7.9995   25.2020   59.0458 C   0  0
    5.8426   24.1617   59.1948 C   0  0
    5.2758   26.3696   53.7604 C   0  0
    5.0360   25.6101   55.0596 C   0  0
    7.5063   25.7583   50.2859 Br  0  0
    7.0666   24.4778   59.7726 C   0  0
    4.7000   27.6220   53.5579 C   0  0
    4.7048   23.2635   60.1198 Cl  0  0
    6.0103   28.3770   50.1568 O   0  0
    5.4376   29.6409   49.8174 C   0  0
    8.7390   26.4001   56.9645 C   0  0
    7.2154   32.5759   51.3652 H   0  0
    6.9687   26.3251   55.4399 H   0  0
    4.5664   24.3174   57.4882 H   0  0
    6.5870   24.8800   52.9487 H   0  0
    4.4533   29.2777   52.2493 H   0  0
    8.9506   25.4472   59.4978 H   0  0
    4.1715   26.0043   55.5945 H   0  0
    4.8516   24.5584   54.8420 H   0  0
    7.2912   24.1643   60.7824 H   0  0
    4.0689   28.0599   54.3180 H   0  0
    4.3745   29.6890   50.0562 H   0  0
    5.5057   29.7567   48.7354 H   0  0
    9.6522   26.5583   57.5346 H   0  0
    8.3161   27.3613   56.6878 H   0  0
    9.0006   25.8953   56.0373 H   0  0
  1  4  1  0
  1  6  2  0
  1  8  1  0
  2  3  3  0
  2 20  1  0
  3 22  1  0
  4 14  1  0
  4 23  1  0
  5  7  2  0
  5  9  1  0
  5 15  1  0
  6 12  1  0
  6 24  1  0
  7 10  1  0
  7 19  1  0
  8 11  2  0
  8 21  1  0
  9 13  2  0
  9 25  1  0
 10 17  2  0
 10 26  1  0
 11 16  1  0
 11 27  1  0
 12 16  2  0
 12 18  1  0
 13 14  1  0
 13 17  1  0
 14 28  1  0
 14 29  1  0
 16 30  1  0
 17 31  1  0
 19 20  1  0
 20 32  1  0
 20 33  1  0
 21 34  1  0
 21 35  1  0
 21 36  1  0
M  END
> <activity>
0

$$$$
ligand_368
  SciTegic10272118463D

 29 30  0  0  1  0            999 V2000
    7.0654   26.1559   54.7400 N   0  0
    8.0542   26.1421   55.6501 N   0  0
    5.8624   25.7480   55.2928 C   0  0
    6.1835   25.3715   56.5906 C   0  0
    7.3034   26.5558   53.3911 C   0  0
    5.5055   31.1934   53.4189 N   0  3
    7.5102   25.7548   56.7798 C   0  0
    5.5062   29.8463   52.8102 C   0  0
    6.3854   27.5811   52.7920 C   0  0
    6.3116   28.8511   53.3690 C   0  0
    4.7090   29.5179   51.6985 C   0  0
    5.5665   32.1707   52.6796 O   0  5
    5.5052   31.2683   54.6440 O   0  0
    8.2913   26.1586   52.7698 O   0  0
    5.6303   27.2824   51.6563 C   0  0
    5.0536   24.5579   57.8884 Br  0  0
    4.7779   28.2465   51.1270 C   0  0
    4.5427   25.6947   54.5476 C   0  0
    3.6039   30.6527   51.0010 Cl  0  0
    8.3045   25.7581   58.0634 C   0  0
    6.9051   29.0788   54.2450 H   0  0
    5.6761   26.3030   51.1987 H   0  0
    4.1671   28.0045   50.2686 H   0  0
    4.5745   25.0156   53.6947 H   0  0
    4.2311   26.6746   54.1873 H   0  0
    3.7389   25.3585   55.2005 H   0  0
    9.2087   26.3624   57.9952 H   0  0
    8.6027   24.7541   58.3589 H   0  0
    7.7178   26.1578   58.8891 H   0  0
  1  2  1  0
  1  3  1  0
  1  5  1  0
  2  7  2  0
  3  4  2  0
  3 18  1  0
  4  7  1  0
  4 16  1  0
  5  9  1  0
  5 14  2  0
  6  8  1  0
  6 12  1  0
  6 13  2  0
  7 20  1  0
  8 10  2  0
  8 11  1  0
  9 10  1  0
  9 15  2  0
 10 21  1  0
 11 17  2  0
 11 19  1  0
 15 17  1  0
 15 22  1  0
 17 23  1  0
 18 24  1  0
 18 25  1  0
 18 26  1  0
 20 27  1  0
 20 28  1  0
 20 29  1  0
M  CHG  2   6   1  12  -1
M  END
> <activity>
0

$$$$
ligand_369
  SciTegic10272118463D

 22 23  0  0  1  0            999 V2000
    5.5225   26.3215   53.3771 C   0  0
    4.3084   26.2350   53.8792 N   0  0
    6.4742   25.9885   54.3507 C   0  0
    5.7464   26.7560   51.9376 C   0  0
    5.7881   25.7013   55.5203 C   0  0
    4.4790   25.8736   55.1560 N   0  0
    6.2654   25.3260   56.8798 C   0  0
    5.3134   28.0006   51.7340 F   0  0
    7.0405   26.7252   51.6160 F   0  0
    5.1074   25.9597   51.0831 F   0  0
    5.4839   24.5580   57.7545 C   0  0
    7.5320   25.7566   57.2820 C   0  0
    7.2358   24.6428   59.3900 C   0  0
    5.9687   24.2153   59.0108 C   0  0
    8.0158   25.4167   58.5409 C   0  0
    7.9057   24.1580   61.0883 Br  0  0
    7.5435   25.9767   54.2188 H   0  0
    3.6935   25.7729   55.7909 H   0  0
    4.4915   24.2324   57.4881 H   0  0
    8.1474   26.3553   56.6249 H   0  0
    5.3669   23.6251   59.6876 H   0  0
    8.9977   25.7435   58.8544 H   0  0
  1  2  2  0
  1  3  1  0
  1  4  1  0
  2  6  1  0
  3  5  2  0
  3 17  1  0
  4  8  1  0
  4  9  1  0
  4 10  1  0
  5  6  1  0
  5  7  1  0
  6 18  1  0
  7 11  2  0
  7 12  1  0
 11 14  1  0
 11 19  1  0
 12 15  2  0
 12 20  1  0
 13 14  2  0
 13 15  1  0
 13 16  1  0
 14 21  1  0
 15 22  1  0
M  END
> <activity>
0

$$$$
ligand_370
  SciTegic10272118463D

 53 54  0  0  1  0            999 V2000
    6.3258   26.6987   53.2424 C   0  0
    6.6040   26.4373   54.5485 N   0  0
    6.3831   25.2730   55.2033 C   0  0
    6.1342   28.0140   52.9188 N   0  0
    6.7214   25.2685   56.6762 C   0  0
    5.8657   24.6285   57.5790 C   0  0
    6.1777   24.5572   58.9325 C   0  0
    6.2067   25.8065   52.3957 O   0  0
    5.4758   28.3802   51.7203 C   0  0
    5.9245   24.2503   54.6880 O   0  0
    7.3701   25.1160   59.4006 C   0  0
    7.9061   25.8427   57.1559 C   0  0
    8.2283   25.7582   58.5081 C   0  0
    6.0665   29.3105   50.8583 C   0  0
    4.1968   27.8844   51.4382 C   0  0
    4.9597   23.6850   60.1108 Br  0  0
    4.0965   29.2734   49.4534 C   0  0
    5.3721   29.7566   49.7408 C   0  0
    3.5157   28.3254   50.3095 C   0  0
    6.5459   29.1358   53.7812 C   0  0
    3.5020   29.7570   48.3049 O   0  0
    5.3668   33.1181   56.4624 O   0  0
    7.7359   25.0263   60.8747 C   0  0
    4.7945   32.0291   55.7700 C   0  0
    2.2601   29.2170   47.8590 C   0  0
    5.3846   30.0089   54.2928 C   0  0
    5.8847   31.2929   54.9755 C   0  0
    1.0718   29.8206   48.6304 C   0  0
    6.8506   27.2262   55.1228 H   0  0
    4.9460   24.1781   57.2403 H   0  0
    8.6009   26.3286   56.4843 H   0  0
    9.1544   26.1869   58.8633 H   0  0
    7.0525   29.7062   51.0502 H   0  0
    3.7229   27.1679   52.0931 H   0  0
    5.8325   30.4822   49.0885 H   0  0
    2.5402   27.9085   50.1133 H   0  0
    7.1844   28.8316   54.6136 H   0  0
    7.1851   29.7579   53.1639 H   0  0
    4.6766   33.5605   56.9596 H   0  0
    7.7830   23.9841   61.1914 H   0  0
    6.9889   25.5359   61.4834 H   0  0
    8.7055   25.4764   61.0871 H   0  0
    4.0159   32.3988   55.1039 H   0  0
    4.3197   31.3591   56.4875 H   0  0
    2.1638   29.4751   46.8052 H   0  0
    2.2572   28.1248   47.8959 H   0  0
    4.7194   30.2875   53.4751 H   0  0
    4.7740   29.4167   54.9734 H   0  0
    6.7057   31.0360   55.6404 H   0  0
    6.3059   31.9636   54.2243 H   0  0
    0.1265   29.3947   48.2888 H   0  0
    1.0225   30.9030   48.4886 H   0  0
    1.1421   29.6306   49.7020 H   0  0
  1  2  1  0
  1  4  1  0
  1  8  2  0
  2  3  1  0
  2 29  1  0
  3  5  1  0
  3 10  2  0
  4  9  1  0
  4 20  1  0
  5  6  2  0
  5 12  1  0
  6  7  1  0
  6 30  1  0
  7 11  2  0
  7 16  1  0
  9 14  2  0
  9 15  1  0
 11 13  1  0
 11 23  1  0
 12 13  2  0
 12 31  1  0
 13 32  1  0
 14 18  1  0
 14 33  1  0
 15 19  2  0
 15 34  1  0
 17 18  2  0
 17 19  1  0
 17 21  1  0
 18 35  1  0
 19 36  1  0
 20 26  1  0
 20 37  1  0
 20 38  1  0
 21 25  1  0
 22 24  1  0
 22 39  1  0
 23 40  1  0
 23 41  1  0
 23 42  1  0
 24 27  1  0
 24 43  1  0
 24 44  1  0
 25 28  1  0
 25 45  1  0
 25 46  1  0
 26 27  1  0
 26 47  1  0
 26 48  1  0
 27 49  1  0
 27 50  1  0
 28 51  1  0
 28 52  1  0
 28 53  1  0
M  END
> <activity>
0

$$$$
ligand_371
  SciTegic10272118463D

 42 44  0  0  1  0            999 V2000
    3.4891   29.8337   49.9395 N   0  0
    2.1551   29.6104   50.2107 C   0  0
    3.7959   31.0937   50.2757 N   0  0
    1.5971   30.6897   50.6874 N   0  0
    2.6147   31.6396   50.7357 N   0  0
    6.6633   25.5464   57.0245 C   0  0
    5.4389   27.3244   54.1016 C   0  0
    4.3771   28.9581   49.3260 N   0  0
    4.8396   26.5616   53.0824 C   0  0
    5.4106   26.9487   55.4388 O   0  0
    6.0065   28.5616   53.7499 C   0  0
    5.7864   25.6012   55.7787 C   0  0
    6.2704   24.8753   58.1963 C   0  0
    7.9163   26.1578   57.0051 C   0  0
    4.8945   26.9791   51.7479 C   0  0
    6.0735   28.9607   52.4171 C   0  0
    1.5063   28.4306   49.9725 N   0  0
    5.5225   28.1813   51.4128 C   0  0
    5.6488   28.6687   49.9795 C   0  0
    3.9060   24.9580   53.4869 Br  0  0
    6.5274   29.3984   54.6969 O   0  0
    4.7634   24.0419   58.3292 Cl  0  0
    8.5387   26.8972   55.5672 Cl  0  0
    8.3057   25.5200   59.3108 C   0  0
    8.7059   26.1579   58.1472 C   0  0
    7.0855   24.8688   59.3235 C   0  0
    5.8830   30.6701   54.7890 C   0  0
    3.9036   28.1396   48.9575 H   0  0
    4.8731   25.0388   55.9510 H   0  0
    6.3275   25.0984   54.9729 H   0  0
    4.4424   26.3688   50.9789 H   0  0
    6.5579   29.8929   52.1665 H   0  0
    1.8838   27.5480   50.2919 H   0  0
    0.5101   28.4369   49.8012 H   0  0
    6.1977   27.9177   49.4150 H   0  0
    6.2640   29.5690   49.9369 H   0  0
    8.9453   25.5149   60.1823 H   0  0
    9.6793   26.6173   58.1186 H   0  0
    6.7644   24.3570   60.2197 H   0  0
    6.3739   31.2826   55.5424 H   0  0
    4.8404   30.5577   55.0884 H   0  0
    5.9093   31.2366   53.8574 H   0  0
  1  2  1  0
  1  3  1  0
  1  8  1  0
  2  4  2  0
  2 17  1  0
  3  5  2  0
  4  5  1  0
  6 12  1  0
  6 13  2  0
  6 14  1  0
  7  9  2  0
  7 10  1  0
  7 11  1  0
  8 19  1  0
  8 28  1  0
  9 15  1  0
  9 20  1  0
 10 12  1  0
 11 16  2  0
 11 21  1  0
 12 29  1  0
 12 30  1  0
 13 22  1  0
 13 26  1  0
 14 23  1  0
 14 25  2  0
 15 18  2  0
 15 31  1  0
 16 18  1  0
 16 32  1  0
 17 33  1  0
 17 34  1  0
 18 19  1  0
 19 35  1  0
 19 36  1  0
 21 27  1  0
 24 25  1  0
 24 26  2  0
 24 37  1  0
 25 38  1  0
 26 39  1  0
 27 40  1  0
 27 41  1  0
 27 42  1  0
M  END
> <activity>
0

$$$$
ligand_372
  SciTegic10272118463D

 54 55  0  0  1  0            999 V2000
    6.0076   31.2454   52.5524 C   0  0
    5.6371   30.3602   53.5827 C   0  0
    5.9134   32.6287   52.7335 C   0  0
    4.9440   32.3301   54.9556 C   0  0
    5.3525   33.1712   53.9015 C   0  0
    5.6353   30.5279   50.2879 C   0  0
    5.1071   30.9552   54.7363 C   0  0
    6.4824   30.8092   51.3345 O   0  0
    5.8785   28.8021   53.5926 C   0  0
    4.3968   32.8726   56.3293 C   0  0
    4.2833   30.5931   50.6373 N   0  0
    6.0851   30.1579   49.2089 O   0  0
    6.7061   33.7580   51.4050 Br  0  0
    3.2331   29.9064   50.0449 C   0  0
    5.3151   34.6793   54.0252 C   0  0
    7.0807   28.5107   54.5217 C   0  0
    4.6349   28.0192   54.0923 C   0  0
    4.0749   31.7765   57.3823 C   0  0
    3.0517   33.6416   56.1662 C   0  0
    5.4803   33.7339   57.0430 C   0  0
    6.2144   28.1150   52.2414 C   0  0
    2.2802   29.3579   50.8958 C   0  0
    3.1110   29.7533   48.6676 C   0  0
    2.0366   29.0521   48.1534 C   0  0
    1.2255   28.6253   50.3754 C   0  0
    1.1059   28.4719   49.0013 C   0  0
    4.8019   30.2782   55.4880 H   0  0
    4.0995   30.9280   51.5705 H   0  0
    6.3060   34.9580   54.3493 H   0  0
    4.6247   35.1041   54.7360 H   0  0
    5.1060   35.1786   53.0880 H   0  0
    7.1941   27.4446   54.7237 H   0  0
    7.0104   29.0165   55.4834 H   0  0
    8.0064   28.8450   54.0572 H   0  0
    4.8227   26.9450   54.1329 H   0  0
    3.7870   28.1586   53.4228 H   0  0
    4.3065   28.2926   55.0880 H   0  0
    4.9887   31.3580   57.7863 H   0  0
    3.4478   30.9722   56.9994 H   0  0
    3.5475   32.1884   58.2449 H   0  0
    2.9118   34.1580   55.2205 H   0  0
    2.9062   34.3722   56.9628 H   0  0
    2.2049   32.9601   56.2263 H   0  0
    5.8794   34.5576   56.4641 H   0  0
    6.3428   33.1215   57.3045 H   0  0
    5.1062   34.1578   57.9759 H   0  0
    6.4166   27.0511   52.3774 H   0  0
    7.1063   28.5147   51.7664 H   0  0
    5.3852   28.1632   51.5368 H   0  0
    2.3654   29.4718   51.9658 H   0  0
    3.8422   30.1580   47.9872 H   0  0
    1.9372   28.9581   47.0878 H   0  0
    0.4987   28.1758   51.0363 H   0  0
    0.2870   27.9008   48.5917 H   0  0
  1  2  2  0
  1  3  1  0
  1  8  1  0
  2  7  1  0
  2  9  1  0
  3  5  2  0
  3 13  1  0
  4  5  1  0
  4  7  2  0
  4 10  1  0
  5 15  1  0
  6  8  1  0
  6 11  1  0
  6 12  2  0
  7 27  1  0
  9 16  1  0
  9 17  1  0
  9 21  1  0
 10 18  1  0
 10 19  1  0
 10 20  1  0
 11 14  1  0
 11 28  1  0
 14 22  2  0
 14 23  1  0
 15 29  1  0
 15 30  1  0
 15 31  1  0
 16 32  1  0
 16 33  1  0
 16 34  1  0
 17 35  1  0
 17 36  1  0
 17 37  1  0
 18 38  1  0
 18 39  1  0
 18 40  1  0
 19 41  1  0
 19 42  1  0
 19 43  1  0
 20 44  1  0
 20 45  1  0
 20 46  1  0
 21 47  1  0
 21 48  1  0
 21 49  1  0
 22 25  1  0
 22 50  1  0
 23 24  2  0
 23 51  1  0
 24 26  1  0
 24 52  1  0
 25 26  2  0
 25 53  1  0
 26 54  1  0
M  END
> <activity>
0

$$$$
ligand_373
  SciTegic10272118463D

 28 30  0  0  1  0            999 V2000
    5.3450   26.0135   53.9937 N   0  0
    6.7009   26.1126   54.2172 C   0  0
    7.3267   26.8097   53.2939 N   0  0
    5.0781   26.7444   52.8707 C   0  0
    6.3322   27.2469   52.4589 C   0  0
    3.9060   26.9582   52.2831 N   0  0
    6.3613   28.0702   51.3231 C   0  0
    7.5362   25.3576   55.5554 S   0  0
    6.6607   24.9131   58.1800 C   0  0
    6.1853   25.2841   56.7771 C   0  0
    5.8360   24.1601   59.0171 C   0  0
    5.1470   28.3296   50.6847 C   0  0
    3.9699   27.7584   51.1827 C   0  0
    4.6198   23.7463   58.5931 F   0  0
    5.1022   29.4367   49.1359 Br  0  0
    7.8916   25.3557   58.6652 C   0  0
    6.2470   23.8367   60.3032 C   0  0
    8.3064   25.0136   59.9430 C   0  0
    7.4882   24.2529   60.7655 C   0  0
    4.7039   25.5024   54.5779 H   0  0
    7.2830   28.4947   50.9592 H   0  0
    5.4542   24.5581   56.4265 H   0  0
    5.6728   26.2436   56.8244 H   0  0
    3.0299   27.9299   50.6762 H   0  0
    8.5468   25.9601   58.0521 H   0  0
    5.5949   23.2635   60.9476 H   0  0
    9.2711   25.3538   60.2893 H   0  0
    7.8140   23.9969   61.7637 H   0  0
  1  2  1  0
  1  4  1  0
  1 20  1  0
  2  3  2  0
  2  8  1  0
  3  5  1  0
  4  5  2  0
  4  6  1  0
  5  7  1  0
  6 13  2  0
  7 12  2  0
  7 21  1  0
  8 10  1  0
  9 10  1  0
  9 11  2  0
  9 16  1  0
 10 22  1  0
 10 23  1  0
 11 14  1  0
 11 17  1  0
 12 13  1  0
 12 15  1  0
 13 24  1  0
 16 18  2  0
 16 25  1  0
 17 19  2  0
 17 26  1  0
 18 19  1  0
 18 27  1  0
 19 28  1  0
M  END
> <activity>
0

$$$$
ligand_374
  SciTegic10272118463D

 40 43  0  0  1  0            999 V2000
    4.9249   28.3074   50.6674 C   0  0
    3.1634   29.6381   50.6047 N   0  0
    4.0416   28.9581   49.8049 C   0  0
    3.4676   29.4670   51.8880 N   0  0
    4.4891   28.6479   51.9572 C   0  0
    5.0582   28.2189   53.2233 C   0  0
    5.1709   26.9230   53.5909 C   0  0
    5.8614   26.4225   54.7935 C   0  0
    6.0541   27.4462   50.3396 C   0  0
    5.5275   29.3118   54.0139 C   0  0
    7.9375   26.0477   56.0357 C   0  0
    7.1872   25.4096   57.0124 C   0  0
    5.8361   25.2567   56.8936 C   0  0
    7.2663   26.5313   54.9063 C   0  0
    6.9444   26.7540   50.0814 N   0  0
    5.9060   30.2307   54.6069 N   0  0
    5.1346   25.7579   55.7971 C   0  0
    2.0643   30.4502   50.2498 C   0  0
    7.6115   24.8361   58.1686 O   0  0
    5.3776   24.5583   57.9700 O   0  0
    3.9052   28.9580   48.4509 N   0  0
    6.4434   24.5580   58.8873 C   0  0
    8.3060   27.2884   53.5023 Br  0  0
    0.8578   30.3157   50.9299 C   0  0
    2.1804   31.4049   49.2406 C   0  0
    1.1069   32.2289   48.9372 C   0  0
   -0.1777   31.2062   50.6880 C   0  0
   -0.0609   32.1580   49.6833 C   0  0
    4.7641   26.1603   52.9409 H   0  0
    9.0073   26.1580   56.1299 H   0  0
    4.0651   25.6317   55.7148 H   0  0
    4.0526   29.7913   47.9030 H   0  0
    4.1319   28.0760   47.9708 H   0  0
    6.3059   25.3266   59.6508 H   0  0
    6.5196   23.6087   59.4153 H   0  0
    0.7475   29.5657   51.6985 H   0  0
    3.1040   31.5283   48.6955 H   0  0
    1.2023   32.9580   48.1480 H   0  0
   -1.0918   31.1337   51.2588 H   0  0
   -0.8798   32.8307   49.4734 H   0  0
  1  3  2  0
  1  5  1  0
  1  9  1  0
  2  3  1  0
  2  4  1  0
  2 18  1  0
  3 21  1  0
  4  5  2  0
  5  6  1  0
  6  7  2  0
  6 10  1  0
  7  8  1  0
  7 29  1  0
  8 14  1  0
  8 17  2  0
  9 15  3  0
 10 16  3  0
 11 12  1  0
 11 14  2  0
 11 30  1  0
 12 13  2  0
 12 19  1  0
 13 17  1  0
 13 20  1  0
 14 23  1  0
 17 31  1  0
 18 24  2  0
 18 25  1  0
 19 22  1  0
 20 22  1  0
 21 32  1  0
 21 33  1  0
 22 34  1  0
 22 35  1  0
 24 27  1  0
 24 36  1  0
 25 26  2  0
 25 37  1  0
 26 28  1  0
 26 38  1  0
 27 28  2  0
 27 39  1  0
 28 40  1  0
M  END
> <activity>
0

$$$$
ligand_375
  SciTegic10272118463D

 46 49  0  0  1  0            999 V2000
    5.6425   27.0240   52.1664 C   0  0
    4.6868   26.4716   53.2352 C   0  0
    7.0254   26.8504   52.8075 C   0  0
    5.3902   28.4491   51.4680 C   0  0  2  0  0  0
    5.7902   29.7809   52.1598 C   0  0
    6.8272   26.4638   54.2098 C   0  0
    5.4865   26.2376   54.4525 C   0  0
    3.5072   26.1589   53.0883 O   0  0
    8.1109   26.9579   52.2551 O   0  0
    6.3587   30.8463   51.4142 C   0  0
    5.4233   30.0359   53.4897 C   0  0
    5.5150   25.7591   50.6301 Br  0  0
    4.0289   28.6785   50.7671 C   0  0
    6.3884   32.1400   51.9354 C   0  0
    5.4763   31.3393   54.0062 C   0  0
    5.9054   32.3918   53.2077 C   0  0
    7.7760   26.2399   55.2057 C   0  0
    5.0812   25.7570   55.6914 C   0  0
    6.9129   30.6841   50.0014 C   0  0
    2.8406   28.6999   51.4882 C   0  0
    3.9589   28.9569   49.4002 C   0  0
    5.0200   31.6656   55.4200 C   0  0
    7.3692   25.7574   56.4438 C   0  0
    6.0232   25.5071   56.6827 C   0  0
    1.6181   28.9302   50.8689 C   0  0
    2.7421   29.1908   48.7701 C   0  0
    1.5663   29.1693   49.5044 C   0  0
    6.0959   28.3692   50.6454 H   0  0
    4.9998   29.2482   54.0949 H   0  0
    6.7733   32.9634   51.3503 H   0  0
    5.9075   33.4040   53.5862 H   0  0
    8.8278   26.4133   55.0344 H   0  0
    4.0403   25.5443   55.8874 H   0  0
    6.1079   30.6822   49.2711 H   0  0
    7.5044   29.7771   49.8938 H   0  0
    7.5779   31.5095   49.7412 H   0  0
    2.8668   28.5585   52.5554 H   0  0
    4.8524   28.9582   48.7960 H   0  0
    4.5113   32.6313   55.4432 H   0  0
    5.8756   31.7283   56.0924 H   0  0
    4.3140   30.9393   55.8153 H   0  0
    8.0988   25.5701   57.2188 H   0  0
    5.7062   25.1216   57.6408 H   0  0
    0.7082   28.9270   51.4511 H   0  0
    2.7128   29.3799   47.7074 H   0  0
    0.6170   29.3415   49.0184 H   0  0
  1  2  1  0
  1  3  1  0
  1  4  1  0
  1 12  1  0
  2  7  1  0
  2  8  2  0
  3  6  1  0
  3  9  2  0
  4  5  1  0
  4 13  1  0
  4 28  1  0
  5 10  2  0
  5 11  1  0
  6  7  2  0
  6 17  1  0
  7 18  1  0
 10 14  1  0
 10 19  1  0
 11 15  2  0
 11 29  1  0
 13 20  2  0
 13 21  1  0
 14 16  2  0
 14 30  1  0
 15 16  1  0
 15 22  1  0
 16 31  1  0
 17 23  2  0
 17 32  1  0
 18 24  2  0
 18 33  1  0
 19 34  1  0
 19 35  1  0
 19 36  1  0
 20 25  1  0
 20 37  1  0
 21 26  2  0
 21 38  1  0
 22 39  1  0
 22 40  1  0
 22 41  1  0
 23 24  1  0
 23 42  1  0
 24 43  1  0
 25 27  2  0
 25 44  1  0
 26 27  1  0
 26 45  1  0
 27 46  1  0
M  END
> <activity>
0

$$$$
ligand_376
  SciTegic10272118463D

 42 44  0  0  1  0            999 V2000
    4.5897   30.5156   50.8619 C   0  0
    4.6994   29.1922   50.5946 C   0  0
    3.2605   31.1576   50.8622 C   0  0
    6.2193   27.3438   51.0023 C   0  0
    5.9241   28.5945   50.5008 O   0  0
    5.7057   27.0195   52.3428 C   0  0
    6.0330   31.5422   51.1948 S   0  0
    3.5276   28.2793   50.1909 C   0  0
    2.3540   29.0974   49.5831 C   0  0
    2.0421   30.2774   50.5367 C   0  0
    5.0199   27.9433   53.0667 O   0  0
    3.0979   32.3477   51.1070 O   0  0
    5.8262   25.8608   53.0964 C   0  0
    6.9373   26.5603   50.3810 O   0  0
    4.7061   27.3777   54.2604 C   0  0
    5.1787   26.0806   54.3127 C   0  0
    5.6698   32.1084   52.8318 C   0  0
    4.9104   32.9726   55.3639 C   0  0
    4.3562   33.5020   57.1074 Br  0  0
    5.5064   33.4679   53.0878 C   0  0
    5.5060   31.1850   53.8553 C   0  0
    5.1142   31.6240   55.1114 C   0  0
    5.1064   33.9069   54.3505 C   0  0
    2.7028   29.6185   48.1650 C   0  0
    1.1065   28.2068   49.5195 C   0  0
    3.8528   27.5168   49.4879 H   0  0
    3.1966   27.7389   51.0793 H   0  0
    1.6715   29.9017   51.4906 H   0  0
    1.2572   30.9112   50.1234 H   0  0
    6.3281   24.9577   52.7891 H   0  0
    4.1521   27.9966   54.9514 H   0  0
    5.0745   25.3843   55.1309 H   0  0
    5.6824   34.1806   52.2982 H   0  0
    5.6528   30.1359   53.6714 H   0  0
    4.9350   30.9146   55.8885 H   0  0
    4.9627   34.9591   54.5431 H   0  0
    1.8462   30.1111   47.7041 H   0  0
    3.0001   28.8106   47.4948 H   0  0
    3.5065   30.3467   48.1716 H   0  0
    0.2752   28.7697   49.1041 H   0  0
    0.8070   27.8205   50.4950 H   0  0
    1.2653   27.3580   48.8585 H   0  0
  1  2  2  0
  1  3  1  0
  1  7  1  0
  2  5  1  0
  2  8  1  0
  3 10  1  0
  3 12  2  0
  4  5  1  0
  4  6  1  0
  4 14  2  0
  6 11  1  0
  6 13  2  0
  7 17  1  0
  8  9  1  0
  8 26  1  0
  8 27  1  0
  9 10  1  0
  9 24  1  0
  9 25  1  0
 10 28  1  0
 10 29  1  0
 11 15  1  0
 13 16  1  0
 13 30  1  0
 15 16  2  0
 15 31  1  0
 16 32  1  0
 17 20  1  0
 17 21  2  0
 18 19  1  0
 18 22  2  0
 18 23  1  0
 20 23  2  0
 20 33  1  0
 21 22  1  0
 21 34  1  0
 22 35  1  0
 23 36  1  0
 24 37  1  0
 24 38  1  0
 24 39  1  0
 25 40  1  0
 25 41  1  0
 25 42  1  0
M  END
> <activity>
0

$$$$
ligand_377
  SciTegic10272118463D

 52 56  0  0  1  0            999 V2000
    4.4780   29.9951   51.3080 C   0  0
    5.8146   30.3493   51.9827 C   0  0  2  0  0  0
    3.9582   31.0491   50.3882 C   0  0
    3.7676   28.8565   51.5343 C   0  0
    2.6322   30.7964   49.6576 C   0  0  2  0  0  0
    6.7057   29.2403   52.3130 N   0  0
    5.6291   31.3705   53.1329 C   0  0
    4.1328   27.7821   52.3167 N   0  0
    1.7167   29.9777   50.5820 C   0  0  2  0  0  0
    5.9060   32.7470   52.9430 C   0  0
    5.1133   30.9613   54.3775 C   0  0
    2.8307   30.1582   48.2497 C   0  0
    2.3397   28.6307   51.0170 C   0  0
    5.5052   33.7011   53.8905 C   0  0
    6.4044   28.2231   53.2321 C   0  0
    4.8232   31.9241   55.3394 C   0  0
    4.9818   33.2499   55.0890 C   0  0
    5.1677   27.5362   53.2355 C   0  0
    4.5122   32.1332   50.2369 O   0  0
    4.3046   31.7580   56.5841 O   0  0
    4.5835   33.9717   56.1663 O   0  0
    4.1555   33.0409   57.1227 C   0  0
    3.1053   28.9695   48.1227 O   0  0
    6.9784   33.3580   51.4881 Br  0  0
    2.6430   30.9490   47.1582 O   0  0
    0.3061   29.8668   50.0286 C   0  0
    7.3804   27.8380   54.1522 C   0  0
    4.9773   26.5226   54.1768 C   0  0
    2.3063   32.3291   47.2180 C   0  0
    5.9575   26.1648   55.0873 C   0  0
    7.1707   26.8242   55.0719 C   0  0
    6.4048   30.8308   51.2040 H   0  0
    2.1755   31.7774   49.5553 H   0  0
    7.6328   29.6031   52.4826 H   0  0
    3.4071   27.0857   52.3828 H   0  0
    1.6014   30.5666   51.4876 H   0  0
    4.8961   29.9243   54.5771 H   0  0
    1.7004   28.2147   51.7947 H   0  0
    2.3430   27.8955   50.2118 H   0  0
    5.6795   34.7515   53.7269 H   0  0
    4.7413   33.1342   58.0378 H   0  0
    3.1109   33.2175   57.3813 H   0  0
   -0.3975   29.6899   50.8421 H   0  0
    0.2455   29.0715   49.2842 H   0  0
   -0.0080   30.7990   49.5568 H   0  0
    8.3328   28.3467   54.1588 H   0  0
    4.0407   25.9839   54.2014 H   0  0
    2.3083   32.7501   46.2127 H   0  0
    3.0267   32.8936   47.8113 H   0  0
    1.3104   32.4718   47.6405 H   0  0
    5.7748   25.3748   55.8016 H   0  0
    7.9451   26.5562   55.7763 H   0  0
  1  2  1  0
  1  3  1  0
  1  4  2  0
  2  6  1  0
  2  7  1  0
  2 32  1  0
  3  5  1  0
  3 19  2  0
  4  8  1  0
  4 13  1  0
  5  9  1  0
  5 12  1  0
  5 33  1  0
  6 15  1  0
  6 34  1  0
  7 10  2  0
  7 11  1  0
  8 18  1  0
  8 35  1  0
  9 13  1  0
  9 26  1  0
  9 36  1  0
 10 14  1  0
 10 24  1  0
 11 16  2  0
 11 37  1  0
 12 23  2  0
 12 25  1  0
 13 38  1  0
 13 39  1  0
 14 17  2  0
 14 40  1  0
 15 18  2  0
 15 27  1  0
 16 17  1  0
 16 20  1  0
 17 21  1  0
 18 28  1  0
 20 22  1  0
 21 22  1  0
 22 41  1  0
 22 42  1  0
 25 29  1  0
 26 43  1  0
 26 44  1  0
 26 45  1  0
 27 31  2  0
 27 46  1  0
 28 30  2  0
 28 47  1  0
 29 48  1  0
 29 49  1  0
 29 50  1  0
 30 31  1  0
 30 51  1  0
 31 52  1  0
M  END
> <activity>
0

$$$$
ligand_378
  SciTegic10272118463D

 33 34  0  0  1  0            999 V2000
    4.0179   30.2767   50.3796 C   0  0
    5.4686   30.5841   50.4729 C   0  0
    3.5355   28.9954   50.4173 C   0  0
    5.9527   31.7882   51.3141 C   0  0
    4.2413   27.8326   50.6878 N   0  0
    6.3076   29.8916   49.8884 O   0  0
    7.2747   31.7339   51.4880 F   0  0
    5.6627   32.9285   50.6888 F   0  0
    5.3562   31.7762   52.5076 F   0  0
    5.0934   27.5659   51.7718 C   0  0
    6.7779   26.9405   53.8995 C   0  0
    3.1269   31.5056   50.1219 C   0  0
    7.9192   26.4999   55.3563 Br  0  0
    2.0723   28.6652   50.1067 C   0  0
    5.0772   28.3442   52.9363 C   0  0
    5.9496   26.4667   51.6854 C   0  0
    5.9226   28.0347   53.9973 C   0  0
    6.7960   26.1584   52.7477 C   0  0
    1.6265   31.1500   50.0657 C   0  0
    1.3756   29.8156   49.3567 C   0  0
    3.9649   26.9942   50.1920 H   0  0
    3.4256   31.9692   49.1800 H   0  0
    3.2611   32.2650   50.8935 H   0  0
    1.5521   28.4575   51.0429 H   0  0
    1.9908   27.7592   49.5023 H   0  0
    4.4025   29.1829   53.0304 H   0  0
    5.9606   25.8462   50.8003 H   0  0
    5.9069   28.6354   54.8947 H   0  0
    7.4563   25.3087   52.6852 H   0  0
    1.2329   31.0849   51.0809 H   0  0
    1.0728   31.9525   49.5765 H   0  0
    1.7450   29.8687   48.3312 H   0  0
    0.3060   29.6171   49.2875 H   0  0
  1  2  1  0
  1  3  2  0
  1 12  1  0
  2  4  1  0
  2  6  2  0
  3  5  1  0
  3 14  1  0
  4  7  1  0
  4  8  1  0
  4  9  1  0
  5 10  1  0
  5 21  1  0
 10 15  2  0
 10 16  1  0
 11 13  1  0
 11 17  2  0
 11 18  1  0
 12 19  1  0
 12 22  1  0
 12 23  1  0
 14 20  1  0
 14 24  1  0
 14 25  1  0
 15 17  1  0
 15 26  1  0
 16 18  2  0
 16 27  1  0
 17 28  1  0
 18 29  1  0
 19 20  1  0
 19 30  1  0
 19 31  1  0
 20 32  1  0
 20 33  1  0
M  END
> <activity>
0

$$$$
ligand_379
  SciTegic10272118463D

 32 33  0  0  1  0            999 V2000
    4.9449   27.5929   51.0922 C   0  0
    3.8254   28.3803   50.4527 C   0  0
    5.6237   26.5305   53.1076 N   0  0
    5.5193   25.4173   56.5392 C   0  0
    6.0048   25.6893   55.3060 C   0  0
    5.1774   26.2382   54.2631 C   0  0
    4.6931   27.1275   52.3365 N   0  0
    6.0238   27.4516   50.5010 O   0  0
    3.1523   30.1024   48.8827 N   0  0
    7.9046   25.3596   54.8231 Br  0  0
    6.2082   24.9542   57.7659 C   0  0
    4.1092   29.3584   49.4900 C   0  0
    2.4781   28.1589   50.7813 C   0  0
    1.8655   29.8738   49.2337 C   0  0
    7.5032   25.3513   58.1050 C   0  0
    5.4975   24.1580   58.6681 C   0  0
    1.4851   28.9185   50.1721 C   0  0
    6.0582   23.7788   59.8836 C   0  0
    8.0692   24.9624   59.3126 C   0  0
    7.3480   24.1808   60.2054 C   0  0
    4.4650   25.5929   56.6886 H   0  0
    4.1471   26.3930   54.5799 H   0  0
    3.7978   27.2794   52.7751 H   0  0
    5.1249   29.5624   49.1817 H   0  0
    2.1871   27.3938   51.4871 H   0  0
    1.1216   30.4801   48.7367 H   0  0
    8.0725   26.0007   57.4574 H   0  0
    4.4848   23.8490   58.4431 H   0  0
    0.4446   28.7626   50.4127 H   0  0
    5.4876   23.1808   60.5806 H   0  0
    9.0696   25.2847   59.5670 H   0  0
    7.7887   23.8911   61.1469 H   0  0
  1  2  1  0
  1  7  1  0
  1  8  2  0
  2 12  2  0
  2 13  1  0
  3  6  2  0
  3  7  1  0
  4  5  2  0
  4 11  1  0
  4 21  1  0
  5  6  1  0
  5 10  1  0
  6 22  1  0
  7 23  1  0
  9 12  1  0
  9 14  2  0
 11 15  1  0
 11 16  2  0
 12 24  1  0
 13 17  2  0
 13 25  1  0
 14 17  1  0
 14 26  1  0
 15 19  2  0
 15 27  1  0
 16 18  1  0
 16 28  1  0
 17 29  1  0
 18 20  2  0
 18 30  1  0
 19 20  1  0
 19 31  1  0
 20 32  1  0
M  END
> <activity>
0

$$$$
ligand_380
  SciTegic10272118463D

 39 41  0  0  1  0            999 V2000
    6.0021   26.7357   54.5491 C   0  0
    5.7604   27.8571   53.5060 C   0  0
    5.5775   27.6904   52.1086 C   0  0
    5.2660   28.8294   51.3299 C   0  0
    5.7168   29.1073   54.0210 N   0  3
    7.4798   26.6693   55.0183 C   0  0
    5.7598   26.3119   51.4377 C   0  0
    5.3949   30.1318   51.9011 C   0  0
    5.5721   30.2677   53.3019 C   0  0
    4.7598   28.7069   50.0242 N   0  0
    5.6066   31.5528   53.9093 C   0  0
    5.2084   26.9950   55.5925 F   0  0
    5.5993   25.5389   54.1241 F   0  0
    3.5538   29.2534   49.5521 C   0  0
    2.4890   29.5321   50.4138 C   0  0
    7.9059   27.8389   55.4997 F   0  0
    7.6471   25.7576   55.9780 F   0  0
    8.3072   26.3481   54.0228 F   0  0
    5.9246   26.3483   50.1142 F   0  0
    6.8582   25.7227   51.9015 F   0  0
    4.7059   25.5468   51.6979 F   0  0
    1.3403   30.1363   49.9145 C   0  0
    5.7551   31.7579   55.6186 Cl  0  0
    5.3670   31.3271   51.1321 C   0  0
   -0.0943   30.5575   51.0878 Br  0  0
    5.4905   32.5697   51.7282 C   0  0
    2.2915   30.1629   47.7013 C   0  0
    5.5694   32.6881   53.1076 C   0  0
    3.4385   29.5592   48.2000 C   0  0
    1.2412   30.4508   48.5638 C   0  0
    5.8143   29.2063   55.0222 H   0  0
    5.4215   28.4280   49.3144 H   0  0
    2.5505   29.3014   51.4667 H   0  0
    5.2802   31.2747   50.0570 H   0  0
    5.5063   33.4552   51.1113 H   0  0
    2.2238   30.4181   46.6571 H   0  0
    5.6353   33.6709   53.5553 H   0  0
    4.2558   29.3576   47.5240 H   0  0
    0.3489   30.9262   48.1861 H   0  0
  1  2  1  0
  1  6  1  0
  1 12  1  0
  1 13  1  0
  2  3  1  0
  2  5  2  0
  3  4  2  0
  3  7  1  0
  4  8  1  0
  4 10  1  0
  5  9  1  0
  5 31  1  0
  6 16  1  0
  6 17  1  0
  6 18  1  0
  7 19  1  0
  7 20  1  0
  7 21  1  0
  8  9  2  0
  8 24  1  0
  9 11  1  0
 10 14  1  0
 10 32  1  0
 11 23  1  0
 11 28  2  0
 14 15  2  0
 14 29  1  0
 15 22  1  0
 15 33  1  0
 22 25  1  0
 22 30  2  0
 24 26  2  0
 24 34  1  0
 26 28  1  0
 26 35  1  0
 27 29  2  0
 27 30  1  0
 27 36  1  0
 28 37  1  0
 29 38  1  0
 30 39  1  0
M  CHG  1   5   1
M  END
> <activity>
0

$$$$
ligand_381
  SciTegic10272118463D

 42 43  0  0  1  0            999 V2000
    5.3653   33.4702   54.7913 N   0  3
    7.2722   25.1751   58.6077 C   0  0
    7.2005   25.4899   57.1421 C   0  0
    6.0804   25.4093   54.9840 C   0  0
    7.1925   26.0142   54.3857 C   0  0
    5.4833   32.3027   53.8875 C   0  0
    6.0896   25.1476   56.3534 C   0  0
    5.5100   33.3042   55.9997 O   0  5
    6.1969   27.7580   51.3143 C   0  0
    5.1033   34.5582   54.2938 O   0  0
    8.2282   25.4842   59.3240 O   0  0
    7.2433   26.2538   52.8826 C   0  0
    8.2658   26.4195   55.1789 C   0  0
    8.2737   26.1580   56.5430 C   0  0
    6.3965   27.3408   52.5735 O   0  0
    6.7058   27.2741   50.3021 O   0  0
    5.5060   31.0078   54.4117 C   0  0
    5.5151   32.4716   52.4964 C   0  0
    5.1809   28.9032   51.2165 C   0  0
    4.5315   24.9582   53.9642 Br  0  0
    5.4293   30.0772   52.1739 C   0  0
    6.1807   24.5178   59.0620 O   0  0
    5.4654   29.9067   53.5644 C   0  0
    5.4865   31.3684   51.6474 C   0  0
    6.0641   24.1578   60.4309 C   0  0
    4.7468   23.4063   60.6243 C   0  0
    5.2215   24.6728   56.7895 H   0  0
    6.9146   25.3585   52.3533 H   0  0
    8.2629   26.4710   52.5594 H   0  0
    9.1060   26.9360   54.7506 H   0  0
    9.1322   26.4668   57.1254 H   0  0
    5.4766   30.8479   55.4803 H   0  0
    5.5192   33.4599   52.0627 H   0  0
    4.1976   28.4866   51.4337 H   0  0
    5.1493   29.2540   50.1848 H   0  0
    5.3757   28.9314   54.0171 H   0  0
    5.4560   31.5265   50.5792 H   0  0
    6.9046   23.5293   60.7301 H   0  0
    6.0826   25.0514   61.0577 H   0  0
    4.6084   23.1156   61.6657 H   0  0
    4.7097   22.5025   60.0162 H   0  0
    3.9060   24.0380   60.3428 H   0  0
  1  6  1  0
  1  8  1  0
  1 10  2  0
  2  3  1  0
  2 11  2  0
  2 22  1  0
  3  7  1  0
  3 14  2  0
  4  5  1  0
  4  7  2  0
  4 20  1  0
  5 12  1  0
  5 13  2  0
  6 17  2  0
  6 18  1  0
  7 27  1  0
  9 15  1  0
  9 16  2  0
  9 19  1  0
 12 15  1  0
 12 28  1  0
 12 29  1  0
 13 14  1  0
 13 30  1  0
 14 31  1  0
 17 23  1  0
 17 32  1  0
 18 24  2  0
 18 33  1  0
 19 21  1  0
 19 34  1  0
 19 35  1  0
 21 23  2  0
 21 24  1  0
 22 25  1  0
 23 36  1  0
 24 37  1  0
 25 26  1  0
 25 38  1  0
 25 39  1  0
 26 40  1  0
 26 41  1  0
 26 42  1  0
M  CHG  2   1   1   8  -1
M  END
> <activity>
0

$$$$
ligand_382
  SciTegic10272118463D

 38 39  0  0  1  0            999 V2000
    4.9160   28.7166   52.0679 C   0  0
    4.7373   27.3545   52.3744 N   0  0
    5.6062   29.5992   52.9201 C   0  0
    4.3697   29.2236   50.8753 C   0  0
    6.6825   25.9957   53.2116 C   0  0
    6.6724   25.3582   55.5042 N   0  0
    4.5901   30.5480   50.5005 C   0  0
    5.7916   30.9305   52.5466 C   0  0
    6.0403   25.7046   54.3627 N   0  0
    7.9057   25.9042   53.0596 O   0  0
    5.7989   26.4299   52.0232 C   0  0
    5.3198   31.4017   51.3241 C   0  0
    5.8595   25.0273   56.4269 C   0  0
    3.2821   28.1580   49.7310 Br  0  0
    6.3120   29.0656   54.6082 Br  0  0
    5.3115   24.1580   58.6746 C   0  0
    6.2571   24.7075   57.8042 C   0  0
    5.6482   23.8888   59.9952 C   0  0
    4.7061   23.3536   60.8276 O   0  0
    7.8875   24.6915   59.6111 C   0  0
    5.6048   32.8253   50.8895 C   0  0
    7.5464   24.9599   58.2894 C   0  0
    6.9292   24.1596   60.4643 C   0  0
    3.8909   27.0961   51.8839 H   0  0
    4.1818   30.9097   49.5678 H   0  0
    6.3063   31.6028   53.2145 H   0  0
    5.0337   25.7643   54.4181 H   0  0
    5.3552   25.4908   51.6891 H   0  0
    6.4111   26.7366   51.1721 H   0  0
    4.7852   24.9583   56.2587 H   0  0
    4.3046   23.9493   58.3407 H   0  0
    4.9389   23.4010   61.7575 H   0  0
    8.8856   24.8990   59.9706 H   0  0
    5.7503   33.4815   51.7482 H   0  0
    4.7860   33.2211   50.2881 H   0  0
    6.5146   32.8521   50.2887 H   0  0
    8.3008   25.3862   57.6422 H   0  0
    7.1921   23.9489   61.4896 H   0  0
  1  2  1  0
  1  3  2  0
  1  4  1  0
  2 11  1  0
  2 24  1  0
  3  8  1  0
  3 15  1  0
  4  7  2  0
  4 14  1  0
  5  9  1  0
  5 10  2  0
  5 11  1  0
  6  9  1  0
  6 13  2  0
  7 12  1  0
  7 25  1  0
  8 12  2  0
  8 26  1  0
  9 27  1  0
 11 28  1  0
 11 29  1  0
 12 21  1  0
 13 17  1  0
 13 30  1  0
 16 17  2  0
 16 18  1  0
 16 31  1  0
 17 22  1  0
 18 19  1  0
 18 23  2  0
 19 32  1  0
 20 22  2  0
 20 23  1  0
 20 33  1  0
 21 34  1  0
 21 35  1  0
 21 36  1  0
 22 37  1  0
 23 38  1  0
M  END
> <activity>
0

$$$$
ligand_383
  SciTegic10272118463D

 46 48  0  0  1  0            999 V2000
    5.9676   28.4301   51.9903 C   0  0
    6.4729   27.1290   51.9038 C   0  0
    6.0915   29.1574   53.1807 C   0  0
    5.3376   28.9917   50.9048 O   0  0
    3.0177   31.2767   50.0108 S   0  0
    3.2983   29.5714   49.7888 C   0  0
    7.0661   26.5281   53.0083 C   0  0
    6.7010   28.5424   54.2875 C   0  0
    7.1788   27.2283   54.2089 C   0  0
    2.3055   31.4238   48.4385 C   0  0
    2.8418   29.1788   48.5316 C   0  0
    6.8581   25.7582   56.1338 N   0  0
    2.2960   30.2134   47.7685 C   0  0
    3.9350   28.7415   50.8749 C   0  0
    6.3565   26.1582   50.2787 Br  0  0
    7.0534   25.3597   57.4657 C   0  0
    7.8312   26.5740   55.4141 C   0  0
    5.6123   30.4547   53.1718 O   0  0
    7.3372   24.5565   60.1200 C   0  0
    6.0782   24.5580   58.0656 C   0  0
    8.1697   25.7577   58.2116 C   0  0
    8.3063   25.3590   59.5353 C   0  0
    6.2155   24.1583   59.3950 C   0  0
    7.5061   24.1584   61.4155 O   0  0
    5.5062   31.1988   54.3801 C   0  0
    5.1826   32.6428   53.9966 C   0  0
    6.1556   25.2751   55.5902 H   0  0
    7.4291   25.5126   52.9293 H   0  0
    6.8130   29.0765   55.2164 H   0  0
    1.9493   32.3832   48.0865 H   0  0
    2.9192   28.1609   48.1802 H   0  0
    1.9100   30.0829   46.7686 H   0  0
    3.4721   28.9701   51.8382 H   0  0
    3.7602   27.6780   50.6942 H   0  0
    8.6637   25.9463   55.0933 H   0  0
    8.2462   27.3579   56.0499 H   0  0
    5.2030   24.2501   57.5111 H   0  0
    8.9540   26.3676   57.7876 H   0  0
    9.1736   25.6687   60.0944 H   0  0
    5.4608   23.5398   59.8590 H   0  0
    8.2842   24.5558   61.8139 H   0  0
    4.7195   30.7830   55.0092 H   0  0
    6.4306   31.1905   54.9564 H   0  0
    5.0063   33.2582   54.8798 H   0  0
    4.3017   32.6940   53.3613 H   0  0
    6.0015   33.0888   53.4335 H   0  0
  1  2  2  0
  1  3  1  0
  1  4  1  0
  2  7  1  0
  2 15  1  0
  3  8  2  0
  3 18  1  0
  4 14  1  0
  5  6  1  0
  5 10  1  0
  6 11  2  0
  6 14  1  0
  7  9  2  0
  7 28  1  0
  8  9  1  0
  8 29  1  0
  9 17  1  0
 10 13  2  0
 10 30  1  0
 11 13  1  0
 11 31  1  0
 12 16  1  0
 12 17  1  0
 12 27  1  0
 13 32  1  0
 14 33  1  0
 14 34  1  0
 16 20  1  0
 16 21  2  0
 17 35  1  0
 17 36  1  0
 18 25  1  0
 19 22  2  0
 19 23  1  0
 19 24  1  0
 20 23  2  0
 20 37  1  0
 21 22  1  0
 21 38  1  0
 22 39  1  0
 23 40  1  0
 24 41  1  0
 25 26  1  0
 25 42  1  0
 25 43  1  0
 26 44  1  0
 26 45  1  0
 26 46  1  0
M  END
> <activity>
0

$$$$
ligand_384
  SciTegic10272118463D

 35 36  0  0  1  0            999 V2000
    4.9751   27.8540   51.9957 C   0  0
    5.6356   26.1996   53.5600 C   0  0
    6.9992   26.1375   53.8703 C   0  0
    4.2221   27.9871   50.7480 C   0  0
    5.1812   26.5396   52.3044 O   0  0
    6.4568   25.5030   56.1588 C   0  0
    7.4028   25.7861   55.1625 C   0  0
    5.3698   28.7991   52.6824 O   0  0
    3.8091   29.1230   50.1312 C   0  0
    4.6933   25.8923   54.5338 C   0  0
    5.1054   25.5621   55.8162 C   0  0
    6.8434   25.1884   57.5696 C   0  0
    8.3062   26.5572   52.5517 Br  0  0
    4.0166   30.5575   50.6107 C   0  0
    3.0284   29.0434   48.8292 C   0  0
    6.0528   24.3600   58.3758 C   0  0
    7.9763   25.7584   58.1485 C   0  0
    8.3061   25.5143   59.4759 C   0  0
    6.3702   24.1296   59.7084 C   0  0
    7.5032   24.7047   60.2616 C   0  0
    3.9763   27.0424   50.2856 H   0  0
    8.4571   25.7491   55.3914 H   0  0
    3.6388   25.9290   54.3002 H   0  0
    4.3408   25.3587   56.5485 H   0  0
    4.3053   30.6501   51.6548 H   0  0
    3.0945   31.1287   50.5004 H   0  0
    4.7840   31.0420   50.0068 H   0  0
    2.8576   28.0122   48.5127 H   0  0
    3.5717   29.5488   48.0279 H   0  0
    2.0524   29.5183   48.9384 H   0  0
    5.1640   23.8920   57.9788 H   0  0
    8.6137   26.4146   57.5760 H   0  0
    9.1917   25.9685   59.8908 H   0  0
    5.7352   23.4998   60.3157 H   0  0
    7.7579   24.5259   61.2957 H   0  0
  1  4  1  0
  1  5  1  0
  1  8  2  0
  2  3  1  0
  2  5  1  0
  2 10  2  0
  3  7  2  0
  3 13  1  0
  4  9  2  0
  4 21  1  0
  6  7  1  0
  6 11  2  0
  6 12  1  0
  7 22  1  0
  9 14  1  0
  9 15  1  0
 10 11  1  0
 10 23  1  0
 11 24  1  0
 12 16  2  0
 12 17  1  0
 14 25  1  0
 14 26  1  0
 14 27  1  0
 15 28  1  0
 15 29  1  0
 15 30  1  0
 16 19  1  0
 16 31  1  0
 17 18  2  0
 17 32  1  0
 18 20  1  0
 18 33  1  0
 19 20  2  0
 19 34  1  0
 20 35  1  0
M  END
> <activity>
0

$$$$
ligand_385
  SciTegic10272118463D

 32 33  0  0  1  0            999 V2000
    5.7683   28.3870   51.4914 C   0  0
    5.6436   26.9378   53.5179 C   0  0
    5.6561   27.1434   52.0649 C   0  0
    5.9075   29.6476   52.2833 C   0  0
    5.7174   28.1755   54.2685 C   0  0
    5.8360   29.4108   53.7334 C   0  0
    5.5827   25.7570   54.0297 N   0  0
    6.8441   25.3537   55.9844 C   0  0
    5.6095   25.6953   55.4583 O   0  0
    6.0551   30.7761   51.8041 O   0  0
    7.9066   25.3582   55.3511 O   0  0
    6.7860   25.0994   57.4582 C   0  0
    5.9040   30.9949   54.9190 Br  0  0
    5.8363   28.6140   49.9738 C   0  0
    5.4794   25.9125   51.1705 C   0  0
    5.6495   24.5535   58.0640 C   0  0
    7.9053   25.3580   58.2519 C   0  0
    5.6342   24.2840   59.4279 C   0  0
    7.8867   25.0983   59.6176 C   0  0
    6.7511   24.5592   60.2059 C   0  0
    5.6654   28.1341   55.3446 H   0  0
    6.3069   29.5541   49.6806 H   0  0
    4.8304   28.6063   49.5495 H   0  0
    6.4205   27.8316   49.4876 H   0  0
    5.1596   26.1355   50.1570 H   0  0
    4.7064   25.2546   51.5694 H   0  0
    6.4149   25.3568   51.1165 H   0  0
    4.7634   24.3310   57.4878 H   0  0
    8.8081   25.7692   57.8204 H   0  0
    4.7478   23.8663   59.8856 H   0  0
    8.7594   25.3108   60.2216 H   0  0
    6.7346   24.3584   61.2676 H   0  0
  1  3  2  0
  1  4  1  0
  1 14  1  0
  2  3  1  0
  2  5  1  0
  2  7  2  0
  3 15  1  0
  4  6  1  0
  4 10  2  0
  5  6  2  0
  5 21  1  0
  6 13  1  0
  7  9  1  0
  8  9  1  0
  8 11  2  0
  8 12  1  0
 12 16  2  0
 12 17  1  0
 14 22  1  0
 14 23  1  0
 14 24  1  0
 15 25  1  0
 15 26  1  0
 15 27  1  0
 16 18  1  0
 16 28  1  0
 17 19  2  0
 17 29  1  0
 18 20  2  0
 18 30  1  0
 19 20  1  0
 19 31  1  0
 20 32  1  0
M  END
> <activity>
0

$$$$
ligand_386
  SciTegic10272118463D

 32 34  0  0  1  0            999 V2000
    6.0322   27.2028   52.0463 N   0  0
    6.1762   26.3741   53.1466 C   0  0
    7.3334   25.7574   53.0877 N   0  0
    7.9217   26.1583   51.8974 N   0  0
    7.1059   27.0657   51.2559 N   0  0
    5.2061   26.2138   54.1301 N   0  0
    5.3512   25.7588   55.4749 N   0  0
    4.9957   28.0769   51.6646 C   0  0
    6.4693   25.8249   56.0868 C   0  0
    5.7614   24.5580   58.1411 C   0  0
    6.7058   25.3257   57.4483 C   0  0
    6.0129   24.1580   59.4490 C   0  0
    4.7060   23.1539   60.3915 Br  0  0
    8.1644   25.2324   59.3958 C   0  0
    3.6982   27.6018   51.4992 C   0  0
    5.2762   29.4204   51.4132 C   0  0
    7.2086   24.4899   60.0744 C   0  0
    7.9061   25.6445   58.0921 C   0  0
    2.6879   28.4623   51.0877 C   0  0
    4.2619   30.2801   51.0086 C   0  0
    2.9683   29.8007   50.8447 C   0  0
    4.2408   26.1765   53.8382 H   0  0
    7.3384   26.2886   55.6284 H   0  0
    4.8169   24.2958   57.6854 H   0  0
    9.0968   25.4916   59.8780 H   0  0
    3.4707   26.5589   51.6630 H   0  0
    6.2804   29.8024   51.5322 H   0  0
    7.3935   24.1725   61.0904 H   0  0
    8.6622   26.2303   57.5872 H   0  0
    1.6852   28.0842   50.9489 H   0  0
    4.4804   31.3207   50.8186 H   0  0
    2.1810   30.4677   50.5254 H   0  0
  1  2  1  0
  1  5  1  0
  1  8  1  0
  2  3  2  0
  2  6  1  0
  3  4  1  0
  4  5  2  0
  6  7  1  0
  6 22  1  0
  7  9  2  0
  8 15  2  0
  8 16  1  0
  9 11  1  0
  9 23  1  0
 10 11  2  0
 10 12  1  0
 10 24  1  0
 11 18  1  0
 12 13  1  0
 12 17  2  0
 14 17  1  0
 14 18  2  0
 14 25  1  0
 15 19  1  0
 15 26  1  0
 16 20  2  0
 16 27  1  0
 17 28  1  0
 18 29  1  0
 19 21  2  0
 19 30  1  0
 20 21  1  0
 20 31  1  0
 21 32  1  0
M  END
> <activity>
0

$$$$
ligand_387
  SciTegic10272118463D

 30 32  0  0  1  0            999 V2000
    5.5586   27.3236   53.6821 C   0  0
    4.2034   27.2304   51.8876 N   0  0
    4.6473   26.4818   52.9073 C   0  0
    5.4102   28.6581   53.0938 C   0  0
    4.5911   28.5393   51.9922 C   0  0
    6.3292   26.9453   54.7444 C   0  0
    6.4924   25.6076   55.3545 C   0  0
    4.2586   29.6361   51.1971 C   0  0
    6.9873   25.5505   56.7245 C   0  0
    6.1510   24.5580   57.8866 S   0  0
    5.9060   29.9143   53.4482 C   0  0
    4.3061   25.3218   53.0884 O   0  0
    4.7536   30.8926   51.5491 C   0  0
    8.1001   26.1579   57.2986 C   0  0
    7.3163   24.9366   59.1098 C   0  0
    5.5665   31.0384   52.6804 C   0  0
    6.2638   24.5578   54.7606 O   0  0
    8.2975   25.7916   58.6370 C   0  0
    3.1458   29.4441   49.6624 Br  0  0
    6.0799   32.4110   53.0710 C   0  0
    3.5853   26.8705   51.1735 H   0  0
    6.9122   27.7182   55.2207 H   0  0
    6.5278   30.0269   54.3240 H   0  0
    4.4961   31.7523   50.9476 H   0  0
    8.7679   26.8156   56.7616 H   0  0
    7.2268   24.5153   60.1006 H   0  0
    9.1201   26.1466   59.2414 H   0  0
    6.1050   32.5180   54.1556 H   0  0
    5.4467   33.2065   52.6768 H   0  0
    7.0884   32.5583   52.6840 H   0  0
  1  3  1  0
  1  4  1  0
  1  6  2  0
  2  3  1  0
  2  5  1  0
  2 21  1  0
  3 12  2  0
  4  5  2  0
  4 11  1  0
  5  8  1  0
  6  7  1  0
  6 22  1  0
  7  9  1  0
  7 17  2  0
  8 13  2  0
  8 19  1  0
  9 10  1  0
  9 14  2  0
 10 15  1  0
 11 16  2  0
 11 23  1  0
 13 16  1  0
 13 24  1  0
 14 18  1  0
 14 25  1  0
 15 18  2  0
 15 26  1  0
 16 20  1  0
 18 27  1  0
 20 28  1  0
 20 29  1  0
 20 30  1  0
M  END
> <activity>
0

$$$$
ligand_388
  SciTegic10272118463D

 46 49  0  0  1  0            999 V2000
    5.9564   28.3225   53.5636 N   0  0
    6.8726   28.1750   54.5772 C   0  0
    5.1077   27.3047   53.1025 C   0  0
    5.2394   26.0997   53.5566 N   0  0
    7.0129   26.7918   55.0888 C   0  0
    6.1703   25.8185   54.5826 C   0  0
    4.1293   27.5673   52.0645 C   0  0
    2.5832   29.1149   50.8007 C   0  0
    1.8784   30.6664   49.0662 C   0  0
    3.4403   28.7285   51.9239 C   0  0
    2.5954   30.4071   50.2418 C   0  0
    5.9824   29.6088   52.9848 C   0  0
    1.1483   29.6473   48.4609 C   0  0
    7.5060   29.0804   55.0877 O   0  0
    1.7884   28.1422   50.2222 C   0  0
    1.1064   28.3853   49.0459 C   0  0
    6.4878   29.7688   51.6917 C   0  0
    5.5063   30.7048   53.7187 C   0  0
    1.9057   32.3840   48.2380 Br  0  0
    3.3265   31.4171   50.8089 O   0  0
    0.1155   26.9580   48.2877 Br  0  0
    7.9053   26.5580   56.1320 C   0  0
    6.0787   32.1255   51.8911 C   0  0
    5.5388   31.9663   53.1588 C   0  0
    6.5308   31.0372   51.1407 C   0  0
    6.2545   24.5580   55.1391 C   0  0
    6.1714   33.3916   51.4175 O   0  0
    7.4928   33.7596   51.1046 C   0  0
    7.9053   25.3308   56.7432 C   0  0
    7.1060   24.3298   56.2295 C   0  0
    4.0253   26.7703   51.3411 H   0  0
    3.5058   29.4799   52.6880 H   0  0
    0.6190   29.8443   47.5433 H   0  0
    1.7335   27.1571   50.6639 H   0  0
    6.8508   28.9210   51.1272 H   0  0
    5.1114   30.5734   54.7169 H   0  0
    4.0040   31.1103   51.4164 H   0  0
    8.5374   27.3397   56.5280 H   0  0
    5.1888   32.8226   53.7163 H   0  0
    6.9300   31.1810   50.1479 H   0  0
    5.6328   23.7687   54.7415 H   0  0
    7.5061   34.8449   51.0880 H   0  0
    7.7677   33.3577   50.1304 H   0  0
    8.2233   33.4407   51.8516 H   0  0
    8.5358   25.1546   57.6031 H   0  0
    7.1651   23.3617   56.7023 H   0  0
  1  2  1  0
  1  3  1  0
  1 12  1  0
  2  5  1  0
  2 14  2  0
  3  4  2  0
  3  7  1  0
  4  6  1  0
  5  6  2  0
  5 22  1  0
  6 26  1  0
  7 10  2  0
  7 31  1  0
  8 10  1  0
  8 11  1  0
  8 15  2  0
  9 11  2  0
  9 13  1  0
  9 19  1  0
 10 32  1  0
 11 20  1  0
 12 17  2  0
 12 18  1  0
 13 16  2  0
 13 33  1  0
 15 16  1  0
 15 34  1  0
 16 21  1  0
 17 25  1  0
 17 35  1  0
 18 24  2  0
 18 36  1  0
 20 37  1  0
 22 29  2  0
 22 38  1  0
 23 24  1  0
 23 25  2  0
 23 27  1  0
 24 39  1  0
 25 40  1  0
 26 30  2  0
 26 41  1  0
 27 28  1  0
 28 42  1  0
 28 43  1  0
 28 44  1  0
 29 30  1  0
 29 45  1  0
 30 46  1  0
M  END
> <activity>
0

$$$$
ligand_389
  SciTegic10272118463D

 37 39  0  0  1  0            999 V2000
    6.8426   26.2762   55.2103 C   0  0
    7.1099   25.7195   57.3075 C   0  0
    5.8605   25.1879   56.9284 C   0  0
    7.7201   26.3418   56.2552 O   0  0
    5.6969   25.5361   55.5366 C   0  0
    7.2353   26.8772   53.9522 C   0  0
    7.5886   25.6476   58.6211 C   0  0
    6.8330   24.9569   59.5679 C   0  0
    5.1100   24.5233   57.9219 C   0  0
    6.3512   27.7295   53.3543 N   0  0
    5.6175   24.3798   59.2114 C   0  0
    8.3059   26.5439   53.4391 O   0  0
    9.1501   26.5580   59.1583 Br  0  0
    5.5739   30.3252   52.6285 O   0  0
    4.5899   23.4328   60.5073 Br  0  0
    7.2491   24.9088   60.8746 O   0  0
    4.5359   25.1806   54.6253 C   0  0
    6.5367   28.1548   51.9509 C   0  0
    5.2262   28.3898   54.0514 C   0  0
    6.6230   29.6990   51.8974 C   0  0
    5.5017   29.9059   53.9877 C   0  0
    8.2086   23.8995   61.1304 C   0  0
    4.1174   24.1580   57.7606 H   0  0
    3.5784   25.3581   55.1130 H   0  0
    4.5724   24.1439   54.2880 H   0  0
    4.5187   25.7651   53.7078 H   0  0
    7.4083   27.7007   51.4770 H   0  0
    5.6646   27.8241   51.3853 H   0  0
    5.1062   28.0806   55.0879 H   0  0
    4.2936   28.1618   53.5337 H   0  0
    7.5727   30.0521   52.2879 H   0  0
    6.5749   30.0366   50.8621 H   0  0
    6.4220   30.1583   54.5173 H   0  0
    4.7060   30.4608   54.4821 H   0  0
    7.9059   22.9566   60.6884 H   0  0
    8.3061   23.7587   62.2053 H   0  0
    9.1869   24.1582   60.7273 H   0  0
  1  4  1  0
  1  5  2  0
  1  6  1  0
  2  3  2  0
  2  4  1  0
  2  7  1  0
  3  5  1  0
  3  9  1  0
  5 17  1  0
  6 10  1  0
  6 12  2  0
  7  8  2  0
  7 13  1  0
  8 11  1  0
  8 16  1  0
  9 11  2  0
  9 23  1  0
 10 18  1  0
 10 19  1  0
 11 15  1  0
 14 20  1  0
 14 21  1  0
 16 22  1  0
 17 24  1  0
 17 25  1  0
 17 26  1  0
 18 20  1  0
 18 27  1  0
 18 28  1  0
 19 21  1  0
 19 29  1  0
 19 30  1  0
 20 31  1  0
 20 32  1  0
 21 33  1  0
 21 34  1  0
 22 35  1  0
 22 36  1  0
 22 37  1  0
M  END
> <activity>
0

$$$$
ligand_390
  SciTegic10272118463D

 40 42  0  0  1  0            999 V2000
    7.4098   27.0493   53.5635 S   0  0
    6.0307   27.8001   52.7005 N   0  0
    6.9096   26.3611   55.1498 C   0  0
    5.8687   27.5461   51.2624 C   0  0  2  0  0  0
    5.6777   29.1442   52.9233 C   0  0
    7.9026   26.3073   56.1419 C   0  0
    5.6284   25.8543   55.4318 C   0  0
    5.0825   29.7104   51.8089 C   0  0
    7.9059   25.9166   52.7738 O   0  0
    8.3060   28.1579   53.8884 O   0  0
    4.9450   28.6601   50.7542 C   0  0
    7.6397   25.7579   57.4008 C   0  0
    6.3822   25.2100   57.6550 C   0  0
    5.3869   25.3027   56.6885 C   0  0
    5.9686   24.3871   59.3283 Br  0  0
    5.3140   26.1453   50.9567 C   0  0
    5.8802   29.9212   54.0617 C   0  0
    4.4822   25.8659   54.4352 C   0  0
    4.7081   31.0490   51.8020 C   0  0
    8.6953   25.8055   58.4929 C   0  0
    5.5061   31.2608   54.0633 C   0  0
    4.9319   31.8269   52.9312 C   0  0
    6.8501   27.6508   50.7947 H   0  0
    8.8846   26.7112   55.9392 H   0  0
    5.2476   29.0014   49.7637 H   0  0
    3.9072   28.3303   50.6811 H   0  0
    4.3967   24.9576   56.9384 H   0  0
    5.2248   25.9681   49.8882 H   0  0
    4.3186   26.0158   51.3817 H   0  0
    5.9509   25.3581   51.3523 H   0  0
    6.3389   29.5061   54.9469 H   0  0
    3.5996   25.3581   54.8216 H   0  0
    4.7745   25.3489   53.5237 H   0  0
    4.1705   26.8839   54.2050 H   0  0
    4.2470   31.4922   50.9317 H   0  0
    8.2681   26.1648   59.4286 H   0  0
    9.5056   26.4847   58.2310 H   0  0
    9.0970   24.8129   58.6882 H   0  0
    5.6720   31.8641   54.9436 H   0  0
    4.6486   32.8689   52.9348 H   0  0
  1  2  1  0
  1  3  1  0
  1  9  2  0
  1 10  2  0
  2  4  1  0
  2  5  1  0
  3  6  2  0
  3  7  1  0
  4 11  1  0
  4 16  1  0
  4 23  1  0
  5  8  2  0
  5 17  1  0
  6 12  1  0
  6 24  1  0
  7 14  2  0
  7 18  1  0
  8 11  1  0
  8 19  1  0
 11 25  1  0
 11 26  1  0
 12 13  2  0
 12 20  1  0
 13 14  1  0
 13 15  1  0
 14 27  1  0
 16 28  1  0
 16 29  1  0
 16 30  1  0
 17 21  2  0
 17 31  1  0
 18 32  1  0
 18 33  1  0
 18 34  1  0
 19 22  2  0
 19 35  1  0
 20 36  1  0
 20 37  1  0
 20 38  1  0
 21 22  1  0
 21 39  1  0
 22 40  1  0
M  END
> <activity>
0

$$$$
ligand_391
  SciTegic10272118463D

 39 40  0  0  1  0            999 V2000
    3.3864   30.0785   50.4509 C   0  0
    4.8562   29.2678   52.2632 C   0  0
    3.7606   29.0791   51.3880 C   0  0
    4.8972   27.1376   53.4988 N   0  0
    5.3231   28.3216   53.2929 C   0  0
    8.2220   26.1596   52.0907 N   0  0
    7.6272   26.0503   53.0761 C   0  0
    2.1394   29.9247   49.5203 C   0  0
    6.8879   25.9000   54.3235 C   0  0
    4.1744   31.2428   50.3905 C   0  0
    5.5677   26.3642   54.4611 C   0  0
    5.5960   30.4462   52.1535 C   0  0
    5.2754   31.4144   51.2206 C   0  0
    3.0512   27.9078   51.4482 O   0  0
    6.3757   32.9580   51.0885 Br  0  0
    2.3186   28.7228   48.5565 C   0  0
    0.8538   29.7475   50.3690 C   0  0
    1.8758   31.1677   48.6203 C   0  0
    7.5210   25.2601   55.3852 C   0  0
    4.9111   26.0731   55.6516 C   0  0
    6.8368   24.9762   56.5561 C   0  0
    5.5143   25.3598   56.6785 C   0  0
    6.1403   28.7106   53.8995 H   0  0
    3.9582   32.0412   49.6993 H   0  0
    6.4555   30.6256   52.7825 H   0  0
    2.4383   27.8095   50.7173 H   0  0
    1.4677   28.6277   47.8820 H   0  0
    2.4076   27.7628   49.0593 H   0  0
    3.2100   28.8353   47.9381 H   0  0
   -0.0393   29.7557   49.7452 H   0  0
    0.7412   30.5601   51.0877 H   0  0
    0.8194   28.8140   50.9282 H   0  0
    0.9830   31.0408   48.0042 H   0  0
    2.6969   31.3607   47.9306 H   0  0
    1.7192   32.0737   49.2079 H   0  0
    8.5541   24.9576   55.3046 H   0  0
    3.9060   26.4278   55.7869 H   0  0
    7.3310   24.4555   57.3650 H   0  0
    4.9632   25.1401   57.5813 H   0  0
  1  3  2  0
  1  8  1  0
  1 10  1  0
  2  3  1  0
  2  5  1  0
  2 12  2  0
  3 14  1  0
  4  5  2  0
  4 11  1  0
  5 23  1  0
  6  7  3  0
  7  9  1  0
  8 16  1  0
  8 17  1  0
  8 18  1  0
  9 11  2  0
  9 19  1  0
 10 13  2  0
 10 24  1  0
 11 20  1  0
 12 13  1  0
 12 25  1  0
 13 15  1  0
 14 26  1  0
 16 27  1  0
 16 28  1  0
 16 29  1  0
 17 30  1  0
 17 31  1  0
 17 32  1  0
 18 33  1  0
 18 34  1  0
 18 35  1  0
 19 21  2  0
 19 36  1  0
 20 22  2  0
 20 37  1  0
 21 22  1  0
 21 38  1  0
 22 39  1  0
M  END
> <activity>
0

$$$$
ligand_392
  SciTegic10272118463D

 61 63  0  0  1  0            999 V2000
    5.9239   26.9951   54.3719 C   0  0
    4.9727   26.4296   55.7098 S   0  0
    6.3315   25.6027   56.4230 C   0  0
    5.4570   28.0302   53.4550 C   0  0
    7.1273   26.3205   54.3263 C   0  0
    7.3740   25.5680   55.4890 C   0  0
    6.3411   25.1119   57.8194 C   0  0
    6.1678   29.1700   53.3199 C   0  0
    7.3772   25.4995   58.5893 C   0  0
    6.7365   23.8602   60.3768 N   0  3
    4.4363   30.1141   51.7334 N   0  3
    5.7593   30.3889   52.4880 C   0  0
    7.6462   25.0457   60.0162 C   0  0
    4.0541   28.6539   51.3992 C   0  0
    5.2688   23.9362   59.9331 C   0  0
    4.1635   27.8177   52.6998 C   0  0
    5.1999   24.2561   58.3935 C   0  0
    8.3063   26.5141   52.8490 Br  0  0
    7.5058   26.1342   61.0881 C   0  0
    9.0278   24.4554   60.0129 C   0  0
    6.8231   30.7137   51.4214 C   0  0
    5.4300   31.5544   53.4400 C   0  0
    4.7059   22.5576   60.2868 C   0  0
    4.5866   24.9579   60.8364 C   0  0
    2.5834   28.7401   50.9474 C   0  0
    5.0105   28.1544   50.3020 C   0  0
    8.3056   25.0563   55.6700 H   0  0
    7.0764   29.2481   53.8973 H   0  0
    8.1156   26.1548   58.1470 H   0  0
    6.7808   23.6901   61.3700 H   0  0
    7.1333   23.0530   59.9216 H   0  0
    4.3986   30.6766   50.8967 H   0  0
    3.7027   30.4536   52.3387 H   0  0
    3.9843   26.7600   52.4993 H   0  0
    3.4178   28.1577   53.4062 H   0  0
    4.2659   24.7529   58.1738 H   0  0
    5.1581   23.3398   57.8317 H   0  0
    7.5933   25.7117   62.0867 H   0  0
    6.6147   26.7386   61.0888 H   0  0
    8.3059   26.8580   60.9691 H   0  0
    9.2582   23.9432   60.9484 H   0  0
    9.7730   25.2388   59.8885 H   0  0
    9.1552   23.7581   59.1877 H   0  0
    7.0834   29.8636   50.7939 H   0  0
    7.7523   31.0432   51.8872 H   0  0
    6.5036   31.5246   50.7645 H   0  0
    4.6607   31.2873   54.1657 H   0  0
    5.0867   32.4385   52.9006 H   0  0
    6.3056   31.8567   54.0140 H   0  0
    4.8470   22.3121   61.3407 H   0  0
    5.1060   21.7377   59.6972 H   0  0
    3.6258   22.5601   60.1387 H   0  0
    4.7233   24.7315   61.8880 H   0  0
    3.5102   24.9576   60.6868 H   0  0
    4.8784   25.9714   60.6874 H   0  0
    2.4647   29.3692   50.0652 H   0  0
    1.9303   29.1352   51.7265 H   0  0
    2.2036   27.7526   50.6810 H   0  0
    5.0818   28.8505   49.4644 H   0  0
    4.6352   27.2117   49.9028 H   0  0
    6.0146   27.9516   50.6748 H   0  0
  1  2  1  0
  1  4  1  0
  1  5  2  0
  2  3  1  0
  3  6  2  0
  3  7  1  0
  4  8  2  0
  4 16  1  0
  5  6  1  0
  5 18  1  0
  6 27  1  0
  7  9  2  0
  7 17  1  0
  8 12  1  0
  8 28  1  0
  9 13  1  0
  9 29  1  0
 10 13  1  0
 10 15  1  0
 10 30  1  0
 10 31  1  0
 11 12  1  0
 11 14  1  0
 11 32  1  0
 11 33  1  0
 12 21  1  0
 12 22  1  0
 13 19  1  0
 13 20  1  0
 14 16  1  0
 14 25  1  0
 14 26  1  0
 15 17  1  0
 15 23  1  0
 15 24  1  0
 16 34  1  0
 16 35  1  0
 17 36  1  0
 17 37  1  0
 19 38  1  0
 19 39  1  0
 19 40  1  0
 20 41  1  0
 20 42  1  0
 20 43  1  0
 21 44  1  0
 21 45  1  0
 21 46  1  0
 22 47  1  0
 22 48  1  0
 22 49  1  0
 23 50  1  0
 23 51  1  0
 23 52  1  0
 24 53  1  0
 24 54  1  0
 24 55  1  0
 25 56  1  0
 25 57  1  0
 25 58  1  0
 26 59  1  0
 26 60  1  0
 26 61  1  0
M  CHG  2  10   1  11   1
M  END
> <activity>
0

$$$$
ligand_393
  SciTegic10272118463D

 44 45  0  0  1  0            999 V2000
    7.2003   26.4472   55.1261 N   0  3
    3.2768   30.1192   50.7509 C   0  0
    3.0896   28.7708   51.0882 C   0  0
    4.5415   30.7125   50.8783 C   0  0
    5.4498   28.6068   51.7206 C   0  0
    5.6236   29.9640   51.3758 C   0  0
    4.1708   28.0208   51.5994 C   0  0
    6.4014   26.9950   54.2954 N   0  0
    8.4629   26.5597   55.1766 O   0  5
    6.6149   25.2174   55.7815 C   0  0
    7.1054   27.9006   53.4620 O   0  0
    1.7840   31.1496   50.1196 Br  0  0
    6.6741   27.7428   52.1038 C   0  0
    6.7628   25.1081   57.3046 C   0  0
    1.6981   28.1595   50.8685 C   0  0
    3.9807   26.5578   51.9926 C   0  0
    4.7568   32.1685   50.4600 C   0  0
    6.9947   30.6328   51.5038 C   0  0
    7.9056   25.5181   57.9924 C   0  0
    5.7071   24.5580   58.0325 C   0  0
    5.7940   24.4035   59.4118 C   0  0
    7.9946   25.3580   59.3720 C   0  0
    6.9407   24.8032   60.0829 C   0  0
    7.1017   24.3671   55.3040 H   0  0
    5.5551   25.1682   55.5186 H   0  0
    7.5059   28.0201   51.4608 H   0  0
    6.5414   26.6916   51.8416 H   0  0
    1.3098   28.4347   49.8864 H   0  0
    1.0042   28.5345   51.6207 H   0  0
    1.6578   27.0748   50.8841 H   0  0
    2.9675   26.3101   52.2881 H   0  0
    4.5575   26.2766   52.8642 H   0  0
    4.3059   25.9137   51.1734 H   0  0
    5.6808   32.2738   49.8937 H   0  0
    4.8198   32.8071   51.3400 H   0  0
    3.9748   32.5572   49.8145 H   0  0
    7.5089   30.6068   50.5447 H   0  0
    7.6223   30.1582   52.2498 H   0  0
    6.9191   31.6699   51.8238 H   0  0
    8.7512   25.9466   57.4763 H   0  0
    4.8057   24.2390   57.5283 H   0  0
    4.9671   23.9785   59.9646 H   0  0
    8.8899   25.6676   59.8933 H   0  0
    7.0128   24.6841   61.1544 H   0  0
  1  8  2  0
  1  9  1  0
  1 10  1  0
  2  3  2  0
  2  4  1  0
  2 12  1  0
  3  7  1  0
  3 15  1  0
  4  6  2  0
  4 17  1  0
  5  6  1  0
  5  7  2  0
  5 13  1  0
  6 18  1  0
  7 16  1  0
  8 11  1  0
 10 14  1  0
 10 24  1  0
 10 25  1  0
 11 13  1  0
 13 26  1  0
 13 27  1  0
 14 19  2  0
 14 20  1  0
 15 28  1  0
 15 29  1  0
 15 30  1  0
 16 31  1  0
 16 32  1  0
 16 33  1  0
 17 34  1  0
 17 35  1  0
 17 36  1  0
 18 37  1  0
 18 38  1  0
 18 39  1  0
 19 22  1  0
 19 40  1  0
 20 21  2  0
 20 41  1  0
 21 23  1  0
 21 42  1  0
 22 23  2  0
 22 43  1  0
 23 44  1  0
M  CHG  2   1   1   9  -1
M  END
> <activity>
0

$$$$
ligand_394
  SciTegic10272118463D

 32 33  0  0  1  0            999 V2000
    6.2471   27.1044   51.4883 C   0  0
    6.0086   27.6330   52.7712 C   0  0
    5.1917   27.2956   50.6966 N   0  0
    7.4228   26.4295   51.0034 N   0  3
    4.7352   28.1289   52.6943 N   0  0
    4.2879   27.8977   51.4257 C   0  0
    6.9979   27.7290   54.2265 S   0  0
    8.3061   26.1581   51.8121 O   0  5
    5.9677   24.5692   58.0160 C   0  0
    7.4871   26.1576   49.8062 O   0  0
    7.0377   24.9576   58.8292 C   0  0
    5.9288   24.9580   56.6793 C   0  0
    8.0608   25.7482   58.2792 C   0  0
    6.9772   25.6874   56.1238 C   0  0
    6.9954   25.9531   54.6277 C   0  0
    4.5403   23.5143   58.7081 Br  0  0
    8.0366   26.0996   56.9323 C   0  0
    7.0171   24.5330   60.1447 O   0  0
    2.9167   28.2961   50.9395 C   0  0
    8.0827   24.9046   61.0093 C   0  0
    4.2248   28.5891   53.4341 H   0  0
    5.1065   24.6432   56.0596 H   0  0
    8.9013   26.0712   58.8732 H   0  0
    7.8978   25.5004   54.2218 H   0  0
    6.1564   25.4518   54.1393 H   0  0
    8.8547   26.6680   56.5144 H   0  0
    2.7755   28.0548   49.8852 H   0  0
    2.7427   29.3682   51.0486 H   0  0
    2.1291   27.7783   51.4876 H   0  0
    8.1550   25.9885   61.0982 H   0  0
    9.0382   24.5086   60.6603 H   0  0
    7.9060   24.5003   62.0056 H   0  0
  1  2  2  0
  1  3  1  0
  1  4  1  0
  2  5  1  0
  2  7  1  0
  3  6  2  0
  4  8  1  0
  4 10  2  0
  5  6  1  0
  5 21  1  0
  6 19  1  0
  7 15  1  0
  9 11  2  0
  9 12  1  0
  9 16  1  0
 11 13  1  0
 11 18  1  0
 12 14  2  0
 12 22  1  0
 13 17  2  0
 13 23  1  0
 14 15  1  0
 14 17  1  0
 15 24  1  0
 15 25  1  0
 17 26  1  0
 18 20  1  0
 19 27  1  0
 19 28  1  0
 19 29  1  0
 20 30  1  0
 20 31  1  0
 20 32  1  0
M  CHG  2   4   1   8  -1
M  END
> <activity>
0

$$$$
ligand_395
  SciTegic10272118463D

 34 36  0  0  1  0            999 V2000
    4.8550   28.3333   51.7037 C   0  0
    5.0090   29.7098   51.3573 C   0  0
    5.9400   27.5899   52.1989 N   0  0
    2.7025   29.7361   50.6827 N   0  3
    3.8841   30.4197   50.8368 C   0  0
    3.6112   27.7229   51.5056 C   0  0
    6.0252   26.7732   53.3424 C   0  0
    2.5332   28.4438   50.9989 C   0  0
    6.2215   30.4381   51.5271 C   0  0
    7.2344   26.1272   53.6364 C   0  0
    3.9720   31.7833   50.4951 C   0  0
    6.2893   31.7897   51.2021 C   0  0
    5.1790   32.4505   50.6883 C   0  0
    7.9059   32.7511   51.4850 Br  0  0
    8.2916   26.1590   52.7608 O   0  0
    4.9691   26.6581   54.2490 C   0  0
    1.1720   27.8173   50.7626 C   0  0
    7.3875   25.4235   54.8254 C   0  0
    5.1210   25.9284   55.4219 C   0  0
    6.3287   25.3182   55.7148 C   0  0
    6.8312   28.0013   51.9732 H   0  0
    1.9111   30.2360   50.3045 H   0  0
    3.4885   26.6729   51.7292 H   0  0
    7.0992   29.9564   51.9366 H   0  0
    3.1114   32.3023   50.0999 H   0  0
    5.2565   33.4957   50.4311 H   0  0
    8.0292   26.4334   51.8769 H   0  0
    4.0293   27.1650   54.0813 H   0  0
    1.1304   27.3714   49.7682 H   0  0
    0.3682   28.5517   50.8443 H   0  0
    0.9740   27.0259   51.4870 H   0  0
    8.3311   24.9583   55.0637 H   0  0
    4.3063   25.8571   56.1253 H   0  0
    6.4514   24.7660   56.6366 H   0  0
  1  2  1  0
  1  3  1  0
  1  6  2  0
  2  5  2  0
  2  9  1  0
  3  7  1  0
  3 21  1  0
  4  5  1  0
  4  8  2  0
  4 22  1  0
  5 11  1  0
  6  8  1  0
  6 23  1  0
  7 10  2  0
  7 16  1  0
  8 17  1  0
  9 12  2  0
  9 24  1  0
 10 15  1  0
 10 18  1  0
 11 13  2  0
 11 25  1  0
 12 13  1  0
 12 14  1  0
 13 26  1  0
 15 27  1  0
 16 19  2  0
 16 28  1  0
 17 29  1  0
 17 30  1  0
 17 31  1  0
 18 20  2  0
 18 32  1  0
 19 20  1  0
 19 33  1  0
 20 34  1  0
M  CHG  1   4   1
M  END
> <activity>
0

$$$$
ligand_396
  SciTegic10272118463D

 47 50  0  0  1  0            999 V2000
    5.7934   28.3316   52.6399 N   0  0
    5.1425   27.7472   51.5521 C   0  0
    6.7953   27.5539   53.2760 C   0  0
    5.3727   29.5398   53.2137 N   0  0
    5.6605   26.5585   51.2120 C   0  0
    7.0823   26.1568   52.1946 S   0  0
    5.9060   30.7198   52.8338 C   0  0
    3.9568   28.3545   50.9288 C   0  0
    2.9404   30.1793   49.7308 C   0  0
    4.0751   29.5570   50.2307 C   0  0
    5.5047   31.8990   53.6793 C   0  0
    7.3476   27.8060   54.4056 N   0  0
    1.6880   29.5690   49.8798 C   0  0
    6.6865   30.8614   51.8862 O   0  0
    3.1059   31.3979   49.1098 O   0  0
    2.7033   27.7628   51.0884 C   0  0
    0.5310   30.1273   49.3759 O   0  0
    5.1588   31.7363   55.0268 C   0  0
    1.5649   28.3659   50.5634 C   0  0
    7.6927   26.1603   56.1826 C   0  0
    7.1057   24.9574   56.1160 C   0  0
    4.7841   32.8321   55.7898 C   0  0
    4.3282   32.6185   57.6262 Br  0  0
    8.3020   26.8903   55.0029 C   0  0
    5.5040   33.1813   53.1270 C   0  0
    5.1069   34.2723   53.8881 C   0  0
    1.8887   32.1040   48.8767 C   0  0
    0.7580   31.1610   48.4161 C   0  0
    4.7439   34.0889   55.2106 C   0  0
    4.6663   29.4371   53.9290 H   0  0
    5.2950   25.8894   50.4455 H   0  0
    5.0394   30.0228   50.0985 H   0  0
    2.6078   26.8283   51.6240 H   0  0
    5.1724   30.7603   55.4882 H   0  0
    0.5935   27.9078   50.6818 H   0  0
    7.7611   26.6593   57.1395 H   0  0
    7.0171   24.4249   55.1799 H   0  0
    6.6999   24.4902   57.0025 H   0  0
    8.7055   26.1582   54.3079 H   0  0
    9.1554   27.4597   55.3664 H   0  0
    5.7937   33.3406   52.0970 H   0  0
    5.1050   35.2625   53.4596 H   0  0
    1.5970   32.5560   49.8223 H   0  0
    2.0570   32.9036   48.1553 H   0  0
    1.0452   30.6740   47.4880 H   0  0
   -0.1621   31.7097   48.2155 H   0  0
    4.4406   34.9268   55.8042 H   0  0
  1  2  1  0
  1  3  1  0
  1  4  1  0
  2  5  2  0
  2  8  1  0
  3  6  1  0
  3 12  2  0
  4  7  1  0
  4 30  1  0
  5  6  1  0
  5 31  1  0
  7 11  1  0
  7 14  2  0
  8 10  1  0
  8 16  2  0
  9 10  2  0
  9 13  1  0
  9 15  1  0
 10 32  1  0
 11 18  2  0
 11 25  1  0
 12 24  1  0
 13 17  1  0
 13 19  2  0
 15 27  1  0
 16 19  1  0
 16 33  1  0
 17 28  1  0
 18 22  1  0
 18 34  1  0
 19 35  1  0
 20 21  2  0
 20 24  1  0
 20 36  1  0
 21 37  1  0
 21 38  1  0
 22 23  1  0
 22 29  2  0
 24 39  1  0
 24 40  1  0
 25 26  2  0
 25 41  1  0
 26 29  1  0
 26 42  1  0
 27 28  1  0
 27 43  1  0
 27 44  1  0
 28 45  1  0
 28 46  1  0
 29 47  1  0
M  END
> <activity>
0

$$$$
ligand_397
  SciTegic10272118463D

 57 61  0  0  1  0            999 V2000
    5.2690   28.0461   52.5796 S   0  0
    3.9939   33.6630   55.8875 C   0  0
    2.8342   34.3729   56.3361 C   0  0
    2.6681   34.5581   57.7331 C   0  0
    1.6651   35.0392   55.7974 C   0  0
    0.9504   35.5408   56.8842 C   0  0
    1.5779   35.3063   58.0551 O   0  0
    5.1056   29.7838   53.0037 N   0  0
    4.7960   33.0703   56.8900 C   0  0
    4.3784   33.5142   54.4618 C   0  0
    3.4272   33.9140   58.6880 C   0  0
    4.4872   33.1510   58.2400 C   0  0
    4.9624   32.4359   54.0637 N   0  0
    5.5653   30.8857   52.2464 C   0  0
    5.8452   27.2127   54.0626 C   0  0
    6.3560   27.8713   51.6090 O   0  0
    3.9142   27.5616   52.2943 O   0  0
    5.5058   32.1935   52.7877 C   0  0
    7.2068   27.2453   54.3793 C   0  0
    4.9597   26.4758   54.8520 C   0  0
    5.5059   32.1581   59.4878 Br  0  0
    5.9063   32.3458   56.5643 O   0  0
    1.1487   35.2933   54.4061 C   0  0
    7.6876   26.5141   55.4636 C   0  0
    5.4415   25.7518   55.9399 C   0  0
    6.8053   25.7582   56.2397 C   0  0
   -0.4186   36.2021   56.8807 C   0  0
    6.0818   30.7042   50.9604 C   0  0
    6.2021   33.1971   52.1092 C   0  0
    7.3245   24.9563   57.4191 C   0  0
   -0.3945   35.3505   54.4332 C   0  0
   -0.8835   36.4330   55.4215 C   0  0
    6.7053   31.7348   50.2883 C   0  0
    6.8028   32.9704   50.8861 C   0  0
    4.3970   30.0003   53.6911 H   0  0
    4.1627   34.3557   53.8097 H   0  0
    3.1059   33.9451   59.7118 H   0  0
    7.8926   27.8180   53.7712 H   0  0
    3.9065   26.4419   54.6140 H   0  0
    5.8964   32.1613   55.6156 H   0  0
    1.5070   36.2848   54.1347 H   0  0
    1.5100   34.5575   53.6920 H   0  0
    8.7420   26.5354   55.6995 H   0  0
    4.7507   25.1825   56.5457 H   0  0
   -1.1282   35.5486   57.3899 H   0  0
   -0.4175   37.1403   57.4359 H   0  0
    6.0268   29.7645   50.4429 H   0  0
    6.2892   34.1772   52.5461 H   0  0
    6.6042   24.9540   58.2382 H   0  0
    8.2582   25.3705   57.8027 H   0  0
    7.5059   23.9232   57.1207 H   0  0
   -0.8055   34.3766   54.7043 H   0  0
   -0.7685   35.5721   53.4329 H   0  0
   -0.5179   37.4044   55.0830 H   0  0
   -1.9718   36.5054   55.3908 H   0  0
    7.1283   31.5724   49.3090 H   0  0
    7.3254   33.7580   50.3788 H   0  0
  1  8  1  0
  1 15  1  0
  1 16  2  0
  1 17  2  0
  2  3  2  0
  2  9  1  0
  2 10  1  0
  3  4  1  0
  3  5  1  0
  4  7  1  0
  4 11  2  0
  5  6  2  0
  5 23  1  0
  6  7  1  0
  6 27  1  0
  8 14  1  0
  8 35  1  0
  9 12  2  0
  9 22  1  0
 10 13  2  0
 10 36  1  0
 11 12  1  0
 11 37  1  0
 12 21  1  0
 13 18  1  0
 14 18  2  0
 14 28  1  0
 15 19  2  0
 15 20  1  0
 18 29  1  0
 19 24  1  0
 19 38  1  0
 20 25  2  0
 20 39  1  0
 22 40  1  0
 23 31  1  0
 23 41  1  0
 23 42  1  0
 24 26  2  0
 24 43  1  0
 25 26  1  0
 25 44  1  0
 26 30  1  0
 27 32  1  0
 27 45  1  0
 27 46  1  0
 28 33  2  0
 28 47  1  0
 29 34  2  0
 29 48  1  0
 30 49  1  0
 30 50  1  0
 30 51  1  0
 31 32  1  0
 31 52  1  0
 31 53  1  0
 32 54  1  0
 32 55  1  0
 33 34  1  0
 33 56  1  0
 34 57  1  0
M  END
> <activity>
0

$$$$
ligand_398
  SciTegic10272118463D

 31 33  0  0  1  0            999 V2000
    5.7088   26.9587   55.0878 N   0  0
    5.1089   26.8957   53.9238 C   0  0
    5.7118   25.7039   55.5207 C   0  0
    5.2174   24.8124   54.6880 N   0  0
    4.8256   25.5774   53.6732 N   0  0
    4.8065   27.9345   53.0906 N   0  0
    4.0653   27.6490   52.0904 N   0  0
    6.2410   25.3273   56.8679 C   0  0
    7.5092   25.7582   57.2662 C   0  0
    5.4702   24.5580   57.7493 C   0  0
    3.6545   28.7344   51.2957 C   0  0
    7.2286   24.6402   59.3820 C   0  0
    2.7068   30.7751   49.6121 C   0  0
    5.9618   24.2115   59.0028 C   0  0
    8.0002   25.4186   58.5243 C   0  0
    7.9058   24.1580   61.0878 Br  0  0
    2.6188   28.5005   50.3851 C   0  0
    4.2060   30.0297   51.3421 C   0  0
    3.7361   31.0435   50.5094 C   0  0
    2.1447   29.5061   49.5479 C   0  0
    2.2415   31.7579   48.7826 O   0  0
    4.3893   25.2218   52.8354 H   0  0
    8.1131   26.3607   56.6029 H   0  0
    4.4719   24.2477   57.4880 H   0  0
    5.3583   23.6242   59.6799 H   0  0
    8.9814   25.7510   58.8315 H   0  0
    2.1708   27.5192   50.3229 H   0  0
    5.0060   30.2577   52.0313 H   0  0
    4.1758   32.0281   50.5672 H   0  0
    1.3447   29.2983   48.8522 H   0  0
    2.7031   32.5914   48.8918 H   0  0
  1  2  2  0
  1  3  1  0
  2  5  1  0
  2  6  1  0
  3  4  2  0
  3  8  1  0
  4  5  1  0
  5 22  1  0
  6  7  2  0
  7 11  1  0
  8  9  2  0
  8 10  1  0
  9 15  1  0
  9 23  1  0
 10 14  2  0
 10 24  1  0
 11 17  1  0
 11 18  2  0
 12 14  1  0
 12 15  2  0
 12 16  1  0
 13 19  2  0
 13 20  1  0
 13 21  1  0
 14 25  1  0
 15 26  1  0
 17 20  2  0
 17 27  1  0
 18 19  1  0
 18 28  1  0
 19 29  1  0
 20 30  1  0
 21 31  1  0
M  END
> <activity>
0

$$$$
ligand_399
  SciTegic10272118463D

 37 39  0  0  1  0            999 V2000
    4.9545   27.6679   52.3943 C   0  0
    5.4667   28.2922   53.5359 C   0  0
    4.8886   26.2148   52.2691 N   0  3
    5.6336   29.6841   53.5310 C   0  0
    5.7244   27.5542   54.6708 O   0  0
    4.5517   28.4312   51.3079 C   0  0
    6.8930   26.8667   54.8283 C   0  0
    5.2931   30.4540   52.4058 C   0  0
    4.6891   29.8109   51.3010 C   0  0
    4.3095   25.5658   53.1355 O   0  5
    6.8471   26.0518   56.0757 C   0  0
    5.4317   25.7580   51.2716 O   0  0
    7.8941   26.9828   54.1136 O   0  0
    6.3059   30.5589   55.0878 Br  0  0
    7.9516   26.0203   56.9332 C   0  0
    5.6847   25.3474   56.4216 C   0  0
    6.7241   24.6231   58.4701 C   0  0
    7.8773   25.3273   58.1406 C   0  0
    5.6296   24.6245   57.6122 C   0  0
    6.6627   23.9429   59.6369 F   0  0
    5.5433   31.9677   52.3811 C   0  0
    4.2101   30.5664   50.0712 C   0  0
    5.4637   32.5562   50.9645 C   0  0
    4.1722   32.0802   50.2895 C   0  0
    4.1348   27.9368   50.4393 H   0  0
    8.8564   26.5583   56.6897 H   0  0
    4.8148   25.3621   55.7787 H   0  0
    8.7067   25.3298   58.8290 H   0  0
    4.7309   24.0931   57.8887 H   0  0
    4.8094   32.4522   53.0268 H   0  0
    6.5240   32.1994   52.7981 H   0  0
    4.8797   30.3168   49.2473 H   0  0
    3.2189   30.2181   49.7757 H   0  0
    6.3303   32.2453   50.3774 H   0  0
    5.5062   33.6427   51.0113 H   0  0
    3.3114   32.3500   50.9045 H   0  0
    4.0129   32.5580   49.3286 H   0  0
  1  2  2  0
  1  3  1  0
  1  6  1  0
  2  4  1  0
  2  5  1  0
  3 10  1  0
  3 12  2  0
  4  8  2  0
  4 14  1  0
  5  7  1  0
  6  9  2  0
  6 25  1  0
  7 11  1  0
  7 13  2  0
  8  9  1  0
  8 21  1  0
  9 22  1  0
 11 15  2  0
 11 16  1  0
 15 18  1  0
 15 26  1  0
 16 19  2  0
 16 27  1  0
 17 18  2  0
 17 19  1  0
 17 20  1  0
 18 28  1  0
 19 29  1  0
 21 23  1  0
 21 30  1  0
 21 31  1  0
 22 24  1  0
 22 32  1  0
 22 33  1  0
 23 24  1  0
 23 34  1  0
 23 35  1  0
 24 36  1  0
 24 37  1  0
M  CHG  2   3   1  10  -1
M  END
> <activity>
0

$$$$
ligand_400
  SciTegic10272118463D

 41 43  0  0  1  0            999 V2000
    3.8328   30.4956   50.6753 C   0  0
    2.8228   30.0617   49.8014 C   0  0
    2.3517   28.7479   49.9636 C   0  0
    4.4020   29.6901   51.6032 N   0  0
    4.4010   32.1600   50.5773 S   0  0
    1.2889   28.1502   49.0393 C   0  0
    3.9755   28.4116   51.7500 C   0  0
    2.9158   27.9459   50.9714 C   0  0
    5.8887   32.5766   51.5227 C   0  0  2  0  0  0
    2.3063   30.9363   48.7367 C   0  0
    6.9916   31.6619   50.9718 C   0  0
    1.9006   31.6236   47.8978 N   0  0
    4.7283   27.5456   52.7302 C   0  0
    7.2791   30.6096   51.5713 O   0  0
    5.6312   32.6645   53.0360 C   0  0
    0.3261   29.0027   48.6883 F   0  0
    1.9105   27.7582   47.9324 F   0  0
    0.7057   27.1075   49.6145 F   0  0
    4.1561   26.3960   53.3018 C   0  0
    6.0464   27.8572   53.1006 C   0  0
    7.5062   32.0150   49.8886 O   0  5
    6.1454   25.9854   54.6002 C   0  0
    4.8524   25.6279   54.2335 C   0  0
    6.7490   27.0969   54.0285 C   0  0
    7.1004   24.9583   55.8873 Br  0  0
    5.5105   31.5718   53.8930 C   0  0
    5.4291   33.9315   53.5729 C   0  0
    5.1998   31.7588   55.2341 C   0  0
    5.1066   34.1141   54.9050 C   0  0
    4.9957   33.0263   55.7480 C   0  0
    2.5729   26.9365   51.0936 H   0  0
    6.1656   33.5751   51.1822 H   0  0
    3.1523   26.0835   53.0579 H   0  0
    6.5483   28.7017   52.6685 H   0  0
    4.3855   24.7608   54.6730 H   0  0
    7.7548   27.3758   54.3047 H   0  0
    5.6665   30.5700   53.5384 H   0  0
    5.5064   34.8050   52.9453 H   0  0
    5.0998   30.9165   55.8874 H   0  0
    4.9551   35.1082   55.2732 H   0  0
    4.7484   33.1623   56.7901 H   0  0
  1  2  2  0
  1  4  1  0
  1  5  1  0
  2  3  1  0
  2 10  1  0
  3  6  1  0
  3  8  2  0
  4  7  2  0
  5  9  1  0
  6 16  1  0
  6 17  1  0
  6 18  1  0
  7  8  1  0
  7 13  1  0
  8 31  1  0
  9 11  1  0
  9 15  1  0
  9 32  1  0
 10 12  3  0
 11 14  2  0
 11 21  1  0
 13 19  2  0
 13 20  1  0
 15 26  2  0
 15 27  1  0
 19 23  1  0
 19 33  1  0
 20 24  2  0
 20 34  1  0
 22 23  2  0
 22 24  1  0
 22 25  1  0
 23 35  1  0
 24 36  1  0
 26 28  1  0
 26 37  1  0
 27 29  2  0
 27 38  1  0
 28 30  2  0
 28 39  1  0
 29 30  1  0
 29 40  1  0
 30 41  1  0
M  CHG  1  21  -1
M  END
> <activity>
0

$$$$
ligand_401
  SciTegic10272118463D

 30 31  0  0  1  0            999 V2000
    4.4191   28.8619   51.5746 C   0  0
    5.1012   28.6482   52.8347 C   0  0
    3.6282   27.9860   50.9792 N   0  0
    3.2335   28.5568   49.8393 N   0  0
    4.5177   30.0286   50.7898 C   0  0
    6.4151   25.3986   56.8441 C   0  0
    5.1570   25.5320   56.3594 C   0  0
    3.7367   29.8150   49.6687 C   0  0
    4.7695   27.4919   53.4480 N   0  0
    5.2731   27.1263   54.6384 N   0  0
    5.9062   29.4755   53.2759 O   0  0
    6.7254   24.9433   58.2226 C   0  0
    4.7705   26.0478   55.0838 C   0  0
    8.0010   25.7544   55.6776 Br  0  0
    5.8310   24.1580   58.9576 C   0  0
    7.9015   25.3594   58.8488 C   0  0
    8.1886   24.9843   60.1534 C   0  0
    6.1102   23.7950   60.2699 C   0  0
    7.2937   24.2038   60.8669 C   0  0
    2.6465   28.0621   49.1793 H   0  0
    5.0916   30.9143   51.0203 H   0  0
    4.3063   25.2409   56.9543 H   0  0
    3.5072   30.4079   48.7955 H   0  0
    4.0909   26.8687   53.0359 H   0  0
    3.9989   25.4553   54.5937 H   0  0
    4.9025   23.8200   58.5221 H   0  0
    8.6096   25.9911   58.3341 H   0  0
    9.1053   25.3169   60.6171 H   0  0
    5.4051   23.1948   60.8266 H   0  0
    7.5167   23.9251   61.8874 H   0  0
  1  2  1  0
  1  3  2  0
  1  5  1  0
  2  9  1  0
  2 11  2  0
  3  4  1  0
  4  8  1  0
  4 20  1  0
  5  8  2  0
  5 21  1  0
  6  7  2  0
  6 12  1  0
  6 14  1  0
  7 13  1  0
  7 22  1  0
  8 23  1  0
  9 10  1  0
  9 24  1  0
 10 13  2  0
 12 15  1  0
 12 16  2  0
 13 25  1  0
 15 18  2  0
 15 26  1  0
 16 17  1  0
 16 27  1  0
 17 19  2  0
 17 28  1  0
 18 19  1  0
 18 29  1  0
 19 30  1  0
M  END
> <activity>
0

$$$$
ligand_402
  SciTegic10272118463D

 38 41  0  0  1  0            999 V2000
    5.2571   28.9120   51.9898 N   0  0
    4.3977   28.6402   50.9293 C   0  0
    5.6376   27.6410   52.4181 C   0  0
    4.3657   27.3580   50.6880 N   0  0
    5.1511   26.7214   51.6238 N   0  0
    5.5366   30.1832   52.5478 C   0  0
    5.9763   31.2611   51.7573 C   0  0
    5.9422   32.5525   52.2867 C   0  0
    5.2327   30.3899   53.8935 C   0  0
    6.4439   27.2594   53.6198 C   0  0
    3.5402   29.6045   50.1577 C   0  0
    5.5060   32.7590   53.5955 C   0  0
    6.6118   31.0220   49.9711 Br  0  0
    5.2049   31.6783   54.4157 C   0  0
    5.3385   34.5243   54.2885 Br  0  0
    6.1058   26.0983   54.3223 C   0  0
    2.9090   30.6829   50.7775 C   0  0
    7.5440   27.9983   54.0408 C   0  0
    3.3155   29.3982   48.7951 C   0  0
    8.2889   27.5807   55.1366 C   0  0
    2.5047   30.2580   48.0652 C   0  0
    2.1027   31.5489   50.0492 C   0  0
    6.8492   25.6841   55.4190 C   0  0
    1.9032   31.3404   48.6915 C   0  0
    7.9454   26.4273   55.8270 C   0  0
    6.2315   33.3963   51.6773 H   0  0
    4.9130   29.5656   54.5156 H   0  0
    4.8959   31.8384   55.4382 H   0  0
    5.2578   25.5027   54.0136 H   0  0
    3.0320   30.8520   51.8371 H   0  0
    7.8346   28.8939   53.5113 H   0  0
    3.7704   28.5580   48.2931 H   0  0
    9.1355   28.1579   55.4648 H   0  0
    2.3456   30.0844   47.0108 H   0  0
    1.6256   32.3824   50.5430 H   0  0
    6.5731   24.7859   55.9524 H   0  0
    1.2764   32.0144   48.1257 H   0  0
    8.5270   26.1142   56.6823 H   0  0
  1  2  1  0
  1  3  1  0
  1  6  1  0
  2  4  2  0
  2 11  1  0
  3  5  2  0
  3 10  1  0
  4  5  1  0
  6  7  2  0
  6  9  1  0
  7  8  1  0
  7 13  1  0
  8 12  2  0
  8 26  1  0
  9 14  2  0
  9 27  1  0
 10 16  1  0
 10 18  2  0
 11 17  1  0
 11 19  2  0
 12 14  1  0
 12 15  1  0
 14 28  1  0
 16 23  2  0
 16 29  1  0
 17 22  2  0
 17 30  1  0
 18 20  1  0
 18 31  1  0
 19 21  1  0
 19 32  1  0
 20 25  2  0
 20 33  1  0
 21 24  2  0
 21 34  1  0
 22 24  1  0
 22 35  1  0
 23 25  1  0
 23 36  1  0
 24 37  1  0
 25 38  1  0
M  END
> <activity>
0

$$$$
ligand_403
  SciTegic10272118463D

 45 46  0  0  1  0            999 V2000
    5.8584   26.8663   52.9097 C   0  0
    6.5073   26.1899   54.0185 C   0  0
    4.9599   27.8629   53.0944 C   0  0
    3.2676   30.3005   50.0245 C   0  0
    6.7839   26.9686   55.0880 N   0  0
    6.2671   26.4525   51.6027 C   0  0
    2.8512   28.9696   50.1517 C   0  0
    4.2519   30.8242   50.8783 C   0  0
    4.3657   28.6683   52.0164 C   0  0
    6.6101   26.1666   50.5338 N   0  0
    3.4087   28.1558   51.1384 C   0  0
    4.7698   29.9978   51.8880 C   0  0
    7.7140   26.6754   56.1931 C   0  0  1  0  0  0
    6.8899   25.0235   53.9387 O   0  0
    7.2721   25.6919   57.2922 C   0  0
    1.5248   28.2429   48.9861 Br  0  0
    2.7060   31.0872   49.0495 O   0  0
    4.6591   32.1363   50.6881 O   0  0
    9.1060   26.5580   55.6874 C   0  0
    6.0851   24.9580   57.2101 C   0  0
    8.0063   25.6288   58.4785 C   0  0
    5.8687   32.6139   51.2836 C   0  0
    7.1152   31.9893   50.6403 C   0  0
    7.5716   24.8647   59.5529 C   0  0
    5.6433   24.1979   58.2880 C   0  0
    6.3822   24.1580   59.4622 C   0  0
    4.6403   28.1433   54.0897 H   0  0
    6.3628   27.8834   55.1207 H   0  0
    3.0879   27.1263   51.2201 H   0  0
    5.5086   30.3744   52.5781 H   0  0
    7.9060   27.6144   56.7145 H   0  0
    2.0638   30.5999   48.5285 H   0  0
    9.8486   26.5580   56.4861 H   0  0
    9.3392   27.4319   55.0880 H   0  0
    9.1642   25.6600   55.0880 H   0  0
    5.4707   24.9940   56.3237 H   0  0
    8.9198   26.1950   58.5889 H   0  0
    5.8652   32.4896   52.3669 H   0  0
    5.9060   33.6909   51.1210 H   0  0
    8.0251   32.4298   51.0494 H   0  0
    7.1244   32.1579   49.5633 H   0  0
    7.1706   30.9143   50.8081 H   0  0
    8.1521   24.8368   60.4641 H   0  0
    4.7145   23.6505   58.2171 H   0  0
    6.0332   23.5753   60.3025 H   0  0
  1  2  1  0
  1  3  2  0
  1  6  1  0
  2  5  1  0
  2 14  2  0
  3  9  1  0
  3 27  1  0
  4  7  1  0
  4  8  2  0
  4 17  1  0
  5 13  1  0
  5 28  1  0
  6 10  3  0
  7 11  2  0
  7 16  1  0
  8 12  1  0
  8 18  1  0
  9 11  1  0
  9 12  2  0
 11 29  1  0
 12 30  1  0
 13 15  1  0
 13 19  1  0
 13 31  1  0
 15 20  2  0
 15 21  1  0
 17 32  1  0
 18 22  1  0
 19 33  1  0
 19 34  1  0
 19 35  1  0
 20 25  1  0
 20 36  1  0
 21 24  2  0
 21 37  1  0
 22 23  1  0
 22 38  1  0
 22 39  1  0
 23 40  1  0
 23 41  1  0
 23 42  1  0
 24 26  1  0
 24 43  1  0
 25 26  2  0
 25 44  1  0
 26 45  1  0
M  END
> <activity>
0

$$$$
ligand_404
  SciTegic10272118463D

 39 41  0  0  1  0            999 V2000
    4.7111   29.3929   50.8027 C   0  0
    5.4858   28.1037   50.8680 C   0  0
    5.5599   25.7208   54.2742 O   0  0
    8.3060   26.5923   54.3755 O   0  0
    6.2900   25.7305   55.4455 C   0  0
    4.9266   27.1285   51.6062 N   0  0
    5.3502   30.6434   50.9425 C   0  0
    3.3259   29.3464   50.5969 C   0  0
    7.6183   26.1661   55.4933 C   0  0
    6.3817   25.7050   53.1018 C   0  0  2  0  0  0
    6.5635   27.9725   50.2881 O   0  0
    4.5786   31.8153   50.8820 C   0  0
    7.4962   26.7804   53.2122 C   0  0
    5.5191   25.8084   51.8272 C   0  0
    2.5852   30.5197   50.5491 C   0  0
    3.2047   31.7509   50.6949 C   0  0
    0.7061   30.4436   50.2874 Br  0  0
    6.7201   30.6732   51.1562 O   0  0
    5.6703   25.2722   56.5985 C   0  0
    8.3061   26.1580   56.6969 C   0  0
    7.3869   31.9248   51.3109 C   0  0
    6.3916   25.1910   57.7840 C   0  0
    7.6998   25.6550   57.8405 C   0  0
    4.0510   27.3178   52.0701 H   0  0
    2.8131   28.4019   50.4685 H   0  0
    6.8662   24.7287   53.0876 H   0  0
    5.0251   32.7914   50.9860 H   0  0
    7.0579   27.7781   53.2742 H   0  0
    8.1386   26.7649   52.3313 H   0  0
    6.1144   25.5087   50.9616 H   0  0
    4.7059   25.0873   51.8933 H   0  0
    2.6161   32.6516   50.6657 H   0  0
    4.6396   24.9588   56.5705 H   0  0
    9.3242   26.5172   56.7401 H   0  0
    7.3050   32.5357   50.4106 H   0  0
    8.4465   31.7582   51.4941 H   0  0
    6.9993   32.4852   52.1633 H   0  0
    5.9182   24.8074   58.6761 H   0  0
    8.2484   25.6230   58.7710 H   0  0
  1  2  1  0
  1  7  2  0
  1  8  1  0
  2  6  1  0
  2 11  2  0
  3  5  1  0
  3 10  1  0
  4  9  1  0
  4 13  1  0
  5  9  2  0
  5 19  1  0
  6 14  1  0
  6 24  1  0
  7 12  1  0
  7 18  1  0
  8 15  2  0
  8 25  1  0
  9 20  1  0
 10 13  1  0
 10 14  1  0
 10 26  1  0
 12 16  2  0
 12 27  1  0
 13 28  1  0
 13 29  1  0
 14 30  1  0
 14 31  1  0
 15 16  1  0
 15 17  1  0
 16 32  1  0
 18 21  1  0
 19 22  2  0
 19 33  1  0
 20 23  2  0
 20 34  1  0
 21 35  1  0
 21 36  1  0
 21 37  1  0
 22 23  1  0
 22 38  1  0
 23 39  1  0
M  END
> <activity>
0

$$$$
ligand_405
  SciTegic10272118463D

 43 46  0  0  1  0            999 V2000
    5.5620   30.0900   52.2044 N   0  0
    5.5375   31.4469   52.5143 C   0  0
    5.6405   32.1401   51.3904 N   0  0
    5.5233   30.0450   50.7976 C   0  0
    5.5643   28.9318   52.9242 N   0  3
    5.6179   31.2946   50.3008 N   0  0
    5.4539   27.7218   52.3325 C   0  0
    5.3753   28.8040   50.1601 C   0  0
    5.3126   32.0958   53.8552 C   0  0
    5.3135   27.6511   50.9483 C   0  0
    5.4861   26.5126   53.0807 N   0  0
    5.1063   31.3585   55.0249 C   0  0
    5.1989   33.4914   53.9208 C   0  0
    6.0295   26.3545   54.3849 C   0  0
    4.5444   33.3581   56.2362 C   0  0
    7.1956   25.7577   56.8533 C   0  0
    4.8128   34.1186   55.0985 C   0  0
    4.7087   31.9822   56.2027 C   0  0
    3.9183   34.1579   57.8462 Br  0  0
    5.2951   25.6669   55.3493 C   0  0
    7.3352   26.7677   54.6560 C   0  0
    7.9099   26.4672   55.8879 C   0  0
    5.8776   25.3623   56.5781 C   0  0
    7.8603   25.5138   58.0381 O   0  0
    7.2231   24.7512   59.0578 C   0  0
    8.1833   24.6355   60.2445 C   0  0
    5.6018   28.9917   53.9290 H   0  0
    5.2901   28.7459   49.0858 H   0  0
    5.1877   26.6875   50.4718 H   0  0
    5.2680   25.6621   52.5822 H   0  0
    5.1780   30.2858   55.0368 H   0  0
    5.3821   34.1093   53.0560 H   0  0
    4.7063   35.1893   55.0880 H   0  0
    4.4957   31.3907   57.0818 H   0  0
    4.2820   25.3493   55.1420 H   0  0
    7.9168   27.2911   53.9111 H   0  0
    8.9238   26.7755   56.1017 H   0  0
    5.2880   24.8269   57.3069 H   0  0
    6.9675   23.7582   58.6852 H   0  0
    6.3039   25.2378   59.3861 H   0  0
    7.7468   24.0420   61.0475 H   0  0
    8.4323   25.6182   60.6491 H   0  0
    9.1165   24.1593   59.9445 H   0  0
  1  2  1  0
  1  4  1  0
  1  5  1  0
  2  3  2  0
  2  9  1  0
  3  6  1  0
  4  6  2  0
  4  8  1  0
  5  7  2  0
  5 27  1  0
  7 10  1  0
  7 11  1  0
  8 10  2  0
  8 28  1  0
  9 12  2  0
  9 13  1  0
 10 29  1  0
 11 14  1  0
 11 30  1  0
 12 18  1  0
 12 31  1  0
 13 17  2  0
 13 32  1  0
 14 20  1  0
 14 21  2  0
 15 17  1  0
 15 18  2  0
 15 19  1  0
 16 22  2  0
 16 23  1  0
 16 24  1  0
 17 33  1  0
 18 34  1  0
 20 23  2  0
 20 35  1  0
 21 22  1  0
 21 36  1  0
 22 37  1  0
 23 38  1  0
 24 25  1  0
 25 26  1  0
 25 39  1  0
 25 40  1  0
 26 41  1  0
 26 42  1  0
 26 43  1  0
M  CHG  1   5   1
M  END
> <activity>
0

$$$$
ligand_406
  SciTegic10272118463D

 25 27  0  0  1  0            999 V2000
    7.4620   26.0409   56.1850 N   0  3
    7.1576   25.3922   57.3336 N   0  0
    6.3026   26.0070   55.4183 C   0  0
    5.3083   25.3580   55.9936 N   0  0
    5.8223   24.9632   57.1955 C   0  0
    7.9058   25.1684   58.4590 C   0  0
    5.2318   24.2869   58.2816 C   0  0
    8.6288   26.5573   56.0001 O   0  5
    7.3095   24.4974   59.5214 C   0  0
    6.1722   26.6623   54.0798 C   0  0
    5.9843   24.0745   59.4385 C   0  0
    6.8054   27.8866   53.8316 C   0  0
    5.4005   26.0697   53.0744 C   0  0
    8.3061   24.1532   61.0937 Br  0  0
    5.9215   27.8928   51.5902 C   0  0
    6.6760   28.5017   52.5896 C   0  0
    5.2798   26.6787   51.8269 C   0  0
    5.7716   28.7330   49.8880 Br  0  0
    8.9227   25.5360   58.4756 H   0  0
    4.2023   23.9650   58.2313 H   0  0
    5.5345   23.5687   60.2808 H   0  0
    7.3875   28.3729   54.6010 H   0  0
    4.9008   25.1281   53.2539 H   0  0
    7.1542   29.4517   52.4020 H   0  0
    4.6908   26.2131   51.0491 H   0  0
  1  2  1  0
  1  3  2  0
  1  8  1  0
  2  5  1  0
  2  6  1  0
  3  4  1  0
  3 10  1  0
  4  5  2  0
  5  7  1  0
  6  9  2  0
  6 19  1  0
  7 11  2  0
  7 20  1  0
  9 11  1  0
  9 14  1  0
 10 12  2  0
 10 13  1  0
 11 21  1  0
 12 16  1  0
 12 22  1  0
 13 17  2  0
 13 23  1  0
 15 16  2  0
 15 17  1  0
 15 18  1  0
 16 24  1  0
 17 25  1  0
M  CHG  2   1   1   8  -1
M  END
> <activity>
0

$$$$
ligand_407
  SciTegic10272118463D

 29 31  0  0  1  0            999 V2000
    6.1425   27.2206   53.2811 C   0  0
    7.5062   25.4727   54.2057 N   0  0
    7.1901   26.2894   53.1712 C   0  0
    5.8361   28.2388   52.2314 C   0  0
    5.3912   27.2448   54.4245 N   0  0
    6.7387   25.5828   55.3154 C   0  0
    5.6815   26.4245   55.4469 N   0  0
    8.0318   26.1584   52.0914 O   0  0
    6.5760   26.8377   50.2879 N   0  0
    7.5059   26.1580   50.8251 C   0  0
    6.0637   28.0126   50.8499 C   0  0
    5.3378   29.4823   52.6483 C   0  0
    5.6533   29.0009   49.9474 C   0  0
    7.1785   24.5585   56.6865 S   0  0
    6.4232   24.3002   59.3730 C   0  0
    5.3787   23.7575   60.0215 C   0  0
    5.0198   30.4623   51.7207 C   0  0
    5.1481   30.2186   50.3670 C   0  0
    4.4039   32.1580   52.2979 Br  0  0
    6.3050   25.1723   58.1384 C   0  0
    7.9972   25.4049   50.2159 H   0  0
    5.1938   29.7065   53.6962 H   0  0
    5.7510   28.8326   48.8871 H   0  0
    7.4262   24.1294   59.7402 H   0  0
    4.3610   23.9139   59.6899 H   0  0
    5.5259   23.1478   60.9023 H   0  0
    4.8694   30.9747   49.6487 H   0  0
    5.2532   25.2913   57.8717 H   0  0
    6.7062   26.1577   58.3696 H   0  0
  1  3  2  0
  1  4  1  0
  1  5  1  0
  2  3  1  0
  2  6  2  0
  3  8  1  0
  4 11  2  0
  4 12  1  0
  5  7  2  0
  6  7  1  0
  6 14  1  0
  8 10  1  0
  9 10  2  0
  9 11  1  0
 10 21  1  0
 11 13  1  0
 12 17  2  0
 12 22  1  0
 13 18  2  0
 13 23  1  0
 14 20  1  0
 15 16  2  0
 15 20  1  0
 15 24  1  0
 16 25  1  0
 16 26  1  0
 17 18  1  0
 17 19  1  0
 18 27  1  0
 20 28  1  0
 20 29  1  0
M  END
> <activity>
0

$$$$
ligand_408
  SciTegic10272118463D

 34 36  0  0  1  0            999 V2000
    6.3784   25.7574   55.7901 C   0  0
    5.3569   25.4916   56.5662 N   0  0
    7.5240   25.2333   56.2011 N   0  0
    7.2303   24.5540   57.3651 N   0  0
    5.9260   24.7639   57.5323 N   0  0
    6.1816   26.5428   54.6721 N   0  0
    7.1032   26.8719   53.7445 C   0  0
    6.6031   27.7903   52.6599 C   0  0
    6.0885   29.1133   52.9204 C   0  0
    5.6958   29.9293   51.8132 C   0  0
    8.2632   26.4538   53.7039 O   0  0
    5.2205   31.2518   52.0491 C   0  0
    5.6374   24.3680   60.0485 C   0  0
    6.7056   25.0768   60.4565 C   0  0
    5.1453   24.1617   58.6152 C   0  0
    4.7075   32.3995   50.6128 Br  0  0
    5.9695   29.6791   54.2228 C   0  0
    6.7043   27.3335   51.3466 C   0  0
    5.8062   29.3978   50.5066 C   0  0
    6.3060   28.1258   50.2879 C   0  0
    5.5061   30.9729   54.4208 C   0  0
    5.1332   31.7528   53.3403 C   0  0
    5.2410   26.8774   54.5383 H   0  0
    5.0381   23.8805   60.8069 H   0  0
    7.3535   25.6004   59.7693 H   0  0
    6.9497   25.1446   61.5065 H   0  0
    5.0705   23.0950   58.4108 H   0  0
    4.1303   24.5554   58.5596 H   0  0
    6.2761   29.1123   55.0881 H   0  0
    7.1032   26.3505   51.1347 H   0  0
    5.5094   29.9928   49.6569 H   0  0
    6.4118   27.7590   49.2805 H   0  0
    5.4335   31.3727   55.4222 H   0  0
    4.7758   32.7584   53.5041 H   0  0
  1  2  2  0
  1  3  1  0
  1  6  1  0
  2  5  1  0
  3  4  2  0
  4  5  1  0
  5 15  1  0
  6  7  1  0
  6 23  1  0
  7  8  1  0
  7 11  2  0
  8  9  2  0
  8 18  1  0
  9 10  1  0
  9 17  1  0
 10 12  1  0
 10 19  2  0
 12 16  1  0
 12 22  2  0
 13 14  2  0
 13 15  1  0
 13 24  1  0
 14 25  1  0
 14 26  1  0
 15 27  1  0
 15 28  1  0
 17 21  2  0
 17 29  1  0
 18 20  2  0
 18 30  1  0
 19 20  1  0
 19 31  1  0
 20 32  1  0
 21 22  1  0
 21 33  1  0
 22 34  1  0
M  END
> <activity>
0

$$$$
ligand_409
  SciTegic10272118463D

 51 53  0  0  1  0            999 V2000
    6.4172   31.7605   51.1479 C   0  0
    5.8319   29.2010   51.1403 C   0  0
    6.8232   30.3231   50.7608 C   0  0
    6.0086   28.4199   52.3423 C   0  0
    5.3923   31.9753   51.9951 N   0  0
    5.0306   27.4279   52.6677 C   0  0
    4.5737   33.3006   55.9867 N   0  3  2  0  0  0
    7.1060   28.5579   53.2423 C   0  0
    5.6504   32.4395   53.3650 C   0  0  2  0  0  0
    4.7229   28.9655   50.3060 C   0  0
    7.0724   32.6994   50.6991 O   0  0
    5.2732   31.4184   54.4531 C   0  0
    5.0598   33.8307   53.6332 C   0  0
    5.1963   26.6015   53.8063 C   0  0
    3.9057   27.2768   51.8420 C   0  0
    3.7662   28.0250   50.6876 C   0  0
    5.2942   31.9430   55.8968 C   0  0
    5.2357   34.3347   55.0514 C   0  0
    6.3101   26.7447   54.6224 C   0  0
    7.2508   27.7280   54.3510 C   0  0
    6.5457   25.5760   56.1057 Br  0  0
    4.6122   29.7072   49.1390 O   0  0
    4.0039   31.7632   51.5671 C   0  0
    4.5618   33.7583   57.4606 C   0  0
    3.4443   29.5762   48.3292 C   0  0
    6.9466   30.3255   49.6793 H   0  0
    7.8241   30.1580   51.1463 H   0  0
    3.6163   33.1618   55.6872 H   0  0
    7.8531   29.3168   53.0882 H   0  0
    6.7243   32.5580   53.4497 H   0  0
    5.9538   30.5748   54.3979 H   0  0
    4.3070   30.9984   54.2276 H   0  0
    5.5059   34.5467   52.9407 H   0  0
    3.9858   33.8196   53.4677 H   0  0
    4.4595   25.8405   54.0295 H   0  0
    3.1447   26.5536   52.0956 H   0  0
    2.8957   27.8295   50.0808 H   0  0
    4.7373   31.2893   56.5647 H   0  0
    6.3060   32.0899   56.2735 H   0  0
    4.7061   35.2805   55.0938 H   0  0
    6.2765   34.4646   55.3484 H   0  0
    8.1023   27.8474   55.0051 H   0  0
    3.9231   31.6651   50.4843 H   0  0
    3.3584   32.5900   51.8487 H   0  0
    3.5977   30.8596   52.0209 H   0  0
    3.8807   34.6033   57.5231 H   0  0
    5.5788   34.0298   57.7522 H   0  0
    4.1773   32.9377   58.0699 H   0  0
    3.5223   30.1986   47.4402 H   0  0
    2.5509   29.8895   48.8707 H   0  0
    3.3057   28.5563   47.9776 H   0  0
  1  3  1  0
  1  5  1  0
  1 11  2  0
  2  3  1  0
  2  4  2  0
  2 10  1  0
  3 26  1  0
  3 27  1  0
  4  6  1  0
  4  8  1  0
  5  9  1  0
  5 23  1  0
  6 14  1  0
  6 15  2  0
  7 17  1  0
  7 18  1  0
  7 24  1  0
  7 28  1  0
  8 20  2  0
  8 29  1  0
  9 12  1  0
  9 13  1  0
  9 30  1  0
 10 16  2  0
 10 22  1  0
 12 17  1  0
 12 31  1  0
 12 32  1  0
 13 18  1  0
 13 33  1  0
 13 34  1  0
 14 19  2  0
 14 35  1  0
 15 16  1  0
 15 36  1  0
 16 37  1  0
 17 38  1  0
 17 39  1  0
 18 40  1  0
 18 41  1  0
 19 20  1  0
 19 21  1  0
 20 42  1  0
 22 25  1  0
 23 43  1  0
 23 44  1  0
 23 45  1  0
 24 46  1  0
 24 47  1  0
 24 48  1  0
 25 49  1  0
 25 50  1  0
 25 51  1  0
M  CHG  1   7   1
M  END
> <activity>
0

$$$$
ligand_410
  SciTegic10272118463D

 24 25  0  0  1  0            999 V2000
    6.9853   26.3024   54.7990 N   0  0
    5.7344   26.0091   54.8172 C   0  0
    7.8170   26.1577   55.9168 C   0  0
    7.1743   25.4722   57.1206 C   0  0
    5.1059   25.4206   55.9049 N   0  0
    4.9168   26.2767   53.6864 N   0  0
    5.8255   25.0947   57.0659 C   0  0
    4.8520   27.4723   52.9178 C   0  0
    7.9060   25.2140   58.2838 C   0  0
    5.3667   28.5776   53.2277 N   0  0
    8.9756   26.5580   55.9799 O   0  0
    5.2177   24.4356   58.1330 C   0  0
    4.1073   27.3277   51.7329 N   0  0
    7.2955   24.5518   59.3497 C   0  0
    5.9586   24.1611   59.2794 C   0  0
    8.3028   24.1584   60.9148 Br  0  0
    4.1331   25.6623   56.0317 H   0  0
    4.3336   25.5170   53.3793 H   0  0
    8.9450   25.5033   58.3656 H   0  0
    5.1842   29.2979   52.5471 H   0  0
    4.1773   24.1490   58.0828 H   0  0
    3.7062   26.4515   51.4316 H   0  0
    3.9747   28.0912   51.0894 H   0  0
    5.4956   23.6543   60.1140 H   0  0
  1  2  2  0
  1  3  1  0
  2  5  1  0
  2  6  1  0
  3  4  1  0
  3 11  2  0
  4  7  2  0
  4  9  1  0
  5  7  1  0
  5 17  1  0
  6  8  1  0
  6 18  1  0
  7 12  1  0
  8 10  2  0
  8 13  1  0
  9 14  2  0
  9 19  1  0
 10 20  1  0
 12 15  2  0
 12 21  1  0
 13 22  1  0
 13 23  1  0
 14 15  1  0
 14 16  1  0
 15 24  1  0
M  END
> <activity>
0

$$$$
ligand_411
  SciTegic10272118463D

 35 36  0  0  1  0            999 V2000
    4.3419   29.3372   50.3334 C   0  0
    4.3066   28.0832   50.8427 C   0  0
    3.6699   29.5966   49.0977 C   0  0
    3.1064   29.7604   48.0999 N   0  0
    4.9991   30.5026   50.9714 C   0  0
    6.6422   27.5138   53.7770 C   0  0
    4.9153   27.5526   52.0825 C   0  0
    6.1418   28.0096   52.5754 C   0  0
    5.9306   26.5651   54.5097 C   0  0
    6.1584   31.0646   50.4353 C   0  0
    4.7129   26.0875   54.0067 C   0  0
    6.5433   24.9738   57.8339 C   0  0
    7.7855   25.3969   58.1280 C   0  0
    8.3043   28.1567   54.4265 Br  0  0
    4.2255   26.5683   52.7947 C   0  0
    6.7055   30.5580   49.3131 F   0  0
    6.4931   26.1579   55.7043 O   0  0
    4.4704   31.0530   52.1367 C   0  0
    5.7546   25.3141   56.5782 C   0  0
    6.7700   32.1524   51.0472 C   0  0
    5.0853   32.1354   52.7547 C   0  0
    6.2322   32.6912   52.2079 C   0  0
    3.7705   27.3475   50.2589 H   0  0
    6.7112   28.7523   52.0374 H   0  0
    4.1297   25.3530   54.5403 H   0  0
    6.0327   24.3317   58.5394 H   0  0
    8.3398   26.0411   57.4594 H   0  0
    8.2711   25.1032   59.0501 H   0  0
    3.2790   26.1979   52.4309 H   0  0
    3.5796   30.6307   52.5753 H   0  0
    4.8233   25.7967   56.8722 H   0  0
    5.5061   24.3835   56.0727 H   0  0
    7.6704   32.5759   50.6256 H   0  0
    4.6682   32.5456   53.6633 H   0  0
    6.7057   33.5363   52.6864 H   0  0
  1  2  2  0
  1  3  1  0
  1  5  1  0
  2  7  1  0
  2 23  1  0
  3  4  3  0
  5 10  2  0
  5 18  1  0
  6  8  2  0
  6  9  1  0
  6 14  1  0
  7  8  1  0
  7 15  2  0
  8 24  1  0
  9 11  2  0
  9 17  1  0
 10 16  1  0
 10 20  1  0
 11 15  1  0
 11 25  1  0
 12 13  2  0
 12 19  1  0
 12 26  1  0
 13 27  1  0
 13 28  1  0
 15 29  1  0
 17 19  1  0
 18 21  2  0
 18 30  1  0
 19 31  1  0
 19 32  1  0
 20 22  2  0
 20 33  1  0
 21 22  1  0
 21 34  1  0
 22 35  1  0
M  END
> <activity>
0

$$$$
ligand_412
  SciTegic10272118463D

 31 33  0  0  1  0            999 V2000
    5.1670   23.5906   60.2832 C   0  0
    6.5702   27.3673   50.9513 C   0  0
    5.6736   28.4210   50.7345 C   0  0
    4.7060   23.8935   59.0535 N   0  0
    6.4055   24.1232   60.3211 N   0  0
    6.0215   27.3928   53.3314 C   0  0
    6.7751   26.8853   52.2499 C   0  0
    5.6539   24.5529   58.3109 C   0  0
    4.9406   28.9449   51.7969 C   0  0
    6.7440   24.6910   59.1166 C   0  0
    5.1071   28.4227   53.0746 C   0  0
    6.0929   26.9085   54.7188 C   0  0
    6.9335   26.0690   55.1774 N   0  0
    5.6593   25.0327   57.0072 C   0  0
    4.5954   22.9579   61.1616 O   0  0
    6.8264   25.6389   56.5061 C   0  0
    7.5057   26.5580   49.4877 Br  0  0
    7.9063   25.3038   58.6719 C   0  0
    5.5062   28.9579   49.4875 O   0  0
    3.6943   30.3655   51.5252 Br  0  0
    7.7330   25.9155   52.4121 O   0  0
    7.9394   25.7583   57.3517 C   0  0
    3.7865   23.6378   58.7288 H   0  0
    7.0068   24.0725   61.1288 H   0  0
    4.5092   28.8452   53.8714 H   0  0
    5.3328   27.3326   55.3738 H   0  0
    4.7846   24.9578   56.3795 H   0  0
    8.7737   25.4106   59.3075 H   0  0
    4.8397   28.4916   48.9720 H   0  0
    8.0504   25.6215   51.5532 H   0  0
    8.8457   26.2134   56.9794 H   0  0
  1  4  1  0
  1  5  1  0
  1 15  2  0
  2  3  1  0
  2  7  2  0
  2 17  1  0
  3  9  2  0
  3 19  1  0
  4  8  1  0
  4 23  1  0
  5 10  1  0
  5 24  1  0
  6  7  1  0
  6 11  2  0
  6 12  1  0
  7 21  1  0
  8 10  2  0
  8 14  1  0
  9 11  1  0
  9 20  1  0
 10 18  1  0
 11 25  1  0
 12 13  2  0
 12 26  1  0
 13 16  1  0
 14 16  2  0
 14 27  1  0
 16 22  1  0
 18 22  2  0
 18 28  1  0
 19 29  1  0
 21 30  1  0
 22 31  1  0
M  END
> <activity>
0

$$$$
ligand_413
  SciTegic10272118463D

 46 47  0  0  1  0            999 V2000
    5.6203   27.8260   51.6716 S   0  0
    4.2633   28.8219   52.2078 N   0  0
    3.6013   29.5995   51.2466 C   0  0
    2.4237   29.1339   50.6248 C   0  0
    4.1054   30.8703   50.9034 C   0  0
    6.1281   26.9081   53.1221 C   0  0
    6.7059   28.7462   51.3215 O   0  0
    5.1059   26.8679   50.6881 O   0  0
    7.6630   24.7705   59.7711 C   0  0
    3.4789   31.6092   49.9001 C   0  0
    1.8064   29.9042   49.6358 C   0  0
    2.3403   31.1311   49.2630 C   0  0
    8.3058   25.7581   59.4294 O   0  0
    7.1496   27.3886   53.9460 C   0  0
    5.4943   25.7032   53.4188 C   0  0
    6.7254   24.1981   58.9992 N   0  0
    1.5162   32.1541   47.8881 Br  0  0
    5.9010   24.9581   54.5205 C   0  0
    7.5443   26.6495   55.0597 C   0  0
    6.9239   25.4294   55.3456 C   0  0
    6.2907   24.7174   57.7013 C   0  0
    1.7534   27.8217   50.9971 C   0  0
    5.3311   31.4864   51.5716 C   0  0
    7.9064   24.1565   61.1412 C   0  0
    7.3391   24.6289   56.5733 C   0  0
    4.5317   29.3773   53.0050 H   0  0
    3.8894   32.5580   49.6017 H   0  0
    0.9091   29.5483   49.1497 H   0  0
    7.6363   28.3284   53.7259 H   0  0
    4.7059   25.3282   52.7813 H   0  0
    6.2364   23.3913   59.3553 H   0  0
    5.4172   24.0147   54.7222 H   0  0
    8.3276   27.0282   55.7013 H   0  0
    5.3774   24.1982   57.4079 H   0  0
    6.0050   25.7580   57.8277 H   0  0
    0.9087   28.0139   51.6579 H   0  0
    2.4286   27.1130   51.4775 H   0  0
    1.3570   27.3533   50.0978 H   0  0
    5.2030   32.5614   51.6997 H   0  0
    6.2153   31.3283   50.9544 H   0  0
    5.5261   31.0708   52.5591 H   0  0
    7.1996   23.3581   61.3634 H   0  0
    7.8071   24.9247   61.9079 H   0  0
    8.9188   23.7581   61.1918 H   0  0
    8.3053   24.9995   56.9188 H   0  0
    7.5060   23.5895   56.2979 H   0  0
  1  2  1  0
  1  6  1  0
  1  7  2  0
  1  8  2  0
  2  3  1  0
  2 26  1  0
  3  4  2  0
  3  5  1  0
  4 11  1  0
  4 22  1  0
  5 10  2  0
  5 23  1  0
  6 14  2  0
  6 15  1  0
  9 13  2  0
  9 16  1  0
  9 24  1  0
 10 12  1  0
 10 27  1  0
 11 12  2  0
 11 28  1  0
 12 17  1  0
 14 19  1  0
 14 29  1  0
 15 18  2  0
 15 30  1  0
 16 21  1  0
 16 31  1  0
 18 20  1  0
 18 32  1  0
 19 20  2  0
 19 33  1  0
 20 25  1  0
 21 25  1  0
 21 34  1  0
 21 35  1  0
 22 36  1  0
 22 37  1  0
 22 38  1  0
 23 39  1  0
 23 40  1  0
 23 41  1  0
 24 42  1  0
 24 43  1  0
 24 44  1  0
 25 45  1  0
 25 46  1  0
M  END
> <activity>
0

$$$$
ligand_414
  SciTegic10272118463D

 31 34  0  0  1  0            999 V2000
    6.5733   24.9579   58.1984 C   0  0
    7.5060   25.7218   57.4482 C   0  0
    7.0923   24.8974   59.5057 N   0  0
    5.4149   24.3618   57.8885 N   0  0
    8.2633   25.5441   59.6147 N   0  0
    7.5603   26.1144   56.0663 C   0  0
    6.4466   24.2322   60.5129 C   0  0
    8.4878   26.0095   58.4039 C   0  0
    5.2523   23.5899   60.1959 C   0  0
    6.3888   25.9757   55.4104 N   0  0
    4.8116   27.5176   52.4925 C   0  0
    4.7840   23.6854   58.8863 C   0  0
    5.0031   27.1093   53.8062 C   0  0
    5.6988   27.1972   51.5052 C   0  0
    3.8114   28.2766   51.9771 O   0  0
    6.1563   26.3614   54.0826 C   0  0
    5.2965   27.7579   50.3359 O   0  0
    8.5988   26.5572   55.5683 O   0  0
    4.0390   28.3227   50.5945 C   0  0
    6.8309   26.4303   51.7382 C   0  0
    4.3061   22.5582   61.4867 Br  0  0
    7.0481   26.0030   53.0509 C   0  0
    6.9125   24.2253   61.4878 H   0  0
    9.3945   26.5580   58.2013 H   0  0
    5.5916   25.6643   55.9475 H   0  0
    3.9049   23.1450   58.5942 H   0  0
    4.3082   27.3844   54.5861 H   0  0
    3.9951   29.3493   50.2295 H   0  0
    3.2648   27.7588   50.0721 H   0  0
    7.5195   26.1711   50.9473 H   0  0
    7.9059   25.3913   53.2709 H   0  0
  1  2  2  0
  1  3  1  0
  1  4  1  0
  2  6  1  0
  2  8  1  0
  3  5  1  0
  3  7  1  0
  4 12  2  0
  5  8  2  0
  6 10  1  0
  6 18  2  0
  7  9  2  0
  7 23  1  0
  8 24  1  0
  9 12  1  0
  9 21  1  0
 10 16  1  0
 10 25  1  0
 11 13  2  0
 11 14  1  0
 11 15  1  0
 12 26  1  0
 13 16  1  0
 13 27  1  0
 14 17  1  0
 14 20  2  0
 15 19  1  0
 16 22  2  0
 17 19  1  0
 19 28  1  0
 19 29  1  0
 20 22  1  0
 20 30  1  0
 22 31  1  0
M  END
> <activity>
0

$$$$
ligand_415
  SciTegic10272118463D

 26 28  0  0  1  0            999 V2000
    6.0635   25.9827   55.5740 N   0  0
    6.6159   26.5965   54.5608 C   0  0
    7.0855   25.7578   56.3788 C   0  0
    5.9554   27.1828   53.3486 C   0  0
    8.2598   26.1575   55.9300 N   0  0
    7.9601   26.7254   54.6943 O   0  0
    6.8989   25.1614   57.7442 C   0  0
    4.7410   26.7137   52.8136 C   0  0
    6.5785   28.2709   52.7237 C   0  0
    5.4455   24.0609   59.3442 N   0  0
    4.1724   27.3252   51.6955 C   0  0
    6.0083   28.8678   51.6006 C   0  0
    5.6870   24.5580   58.1077 C   0  0
    3.9057   25.3582   53.4886 Cl  0  0
    4.8061   28.3987   51.0842 C   0  0
    6.8753   30.3393   50.7603 Br  0  0
    7.9062   25.2370   58.7161 C   0  0
    6.4386   24.1573   60.2605 C   0  0
    7.6803   24.7288   59.9930 C   0  0
    7.5058   28.6695   53.1095 H   0  0
    3.2406   26.9583   51.2889 H   0  0
    4.8608   24.5034   57.4132 H   0  0
    4.3659   28.8612   50.2127 H   0  0
    8.8568   25.7023   58.4947 H   0  0
    6.2173   23.7601   61.2406 H   0  0
    8.4440   24.7873   60.7549 H   0  0
  1  2  2  0
  1  3  1  0
  2  4  1  0
  2  6  1  0
  3  5  2  0
  3  7  1  0
  4  8  2  0
  4  9  1  0
  5  6  1  0
  7 13  2  0
  7 17  1  0
  8 11  1  0
  8 14  1  0
  9 12  2  0
  9 20  1  0
 10 13  1  0
 10 18  2  0
 11 15  2  0
 11 21  1  0
 12 15  1  0
 12 16  1  0
 13 22  1  0
 15 23  1  0
 17 19  2  0
 17 24  1  0
 18 19  1  0
 18 25  1  0
 19 26  1  0
M  END
> <activity>
0

$$$$
ligand_416
  SciTegic10272118463D

 39 40  0  0  1  0            999 V2000
    3.1919   30.0733   50.7467 C   0  0
    4.1343   30.2944   51.9419 C   0  0  2  0  0  0
    5.3118   31.2095   51.6129 C   0  0
    4.5360   29.0005   52.6872 N   0  3
    5.8821   27.7267   54.2844 C   0  0
    3.1081   28.8747   50.0090 C   0  0
    2.3651   31.1407   50.3761 C   0  0
    5.6035   32.3720   52.3452 C   0  0
    7.0250   27.2955   54.1215 O   0  0
    5.5551   29.1358   53.7756 C   0  0
    4.8882   27.0459   54.8943 N   0  0
    2.2305   28.7656   48.9306 C   0  0
    1.4925   31.0233   49.2987 C   0  0
    3.9016   27.7605   50.2884 N   0  0
    5.1027   25.7561   55.4001 N   0  0
    4.7069   32.8594   53.7373 Cl  0  0
    1.4229   29.8395   48.5745 C   0  0
    0.3892   32.4947   48.8079 Br  0  0
    6.1380   30.8513   50.5525 C   0  0
    6.6810   33.1648   51.9840 C   0  0
    7.2341   31.6292   50.2361 C   0  0
    7.5062   32.7805   50.9471 C   0  0
    3.5141   30.7778   52.6881 H   0  0
    3.6782   28.6213   53.0619 H   0  0
    4.8418   28.3568   51.9641 H   0  0
    2.4062   32.0757   50.9179 H   0  0
    6.4353   29.6168   53.3487 H   0  0
    5.1124   29.7723   54.5419 H   0  0
    3.9613   27.4170   55.0562 H   0  0
    2.1736   27.8474   48.3627 H   0  0
    3.3402   26.9946   50.6441 H   0  0
    4.3060   27.4515   49.4107 H   0  0
    4.8760   25.7669   56.3856 H   0  0
    4.4385   25.1351   54.9596 H   0  0
    0.7451   29.7601   47.7389 H   0  0
    5.9450   29.9520   49.9855 H   0  0
    6.9019   34.0660   52.5379 H   0  0
    7.9103   31.3242   49.4607 H   0  0
    8.3803   33.3580   50.7043 H   0  0
  1  2  1  0
  1  6  2  0
  1  7  1  0
  2  3  1  0
  2  4  1  0
  2 23  1  0
  3  8  2  0
  3 19  1  0
  4 10  1  0
  4 24  1  0
  4 25  1  0
  5  9  2  0
  5 10  1  0
  5 11  1  0
  6 12  1  0
  6 14  1  0
  7 13  2  0
  7 26  1  0
  8 16  1  0
  8 20  1  0
 10 27  1  0
 10 28  1  0
 11 15  1  0
 11 29  1  0
 12 17  2  0
 12 30  1  0
 13 17  1  0
 13 18  1  0
 14 31  1  0
 14 32  1  0
 15 33  1  0
 15 34  1  0
 17 35  1  0
 19 21  2  0
 19 36  1  0
 20 22  2  0
 20 37  1  0
 21 22  1  0
 21 38  1  0
 22 39  1  0
M  CHG  1   4   1
M  END
> <activity>
0

$$$$
ligand_417
  SciTegic10272118463D

 44 46  0  0  1  0            999 V2000
    1.7669   30.7893   49.8217 C   0  0
    2.9003   29.8942   50.1858 C   0  0
    0.8927   31.2100   50.6880 N   0  0
    1.5257   31.3205   48.1723 S   0  0
    2.7034   28.6260   50.7434 C   0  0
    4.2052   30.3489   49.9889 C   0  0
    3.7964   27.8313   51.0674 C   0  0
   -0.0579   31.9869   50.1148 C   0  0
    0.0710   32.1544   48.7155 C   0  0
    5.1134   28.2847   50.8828 C   0  0
    5.3187   29.5678   50.3463 C   0  0
    7.1552   26.1582   53.0030 C   0  0
    6.2378   27.5383   51.2030 O   0  0
    8.3059   26.5564   52.8320 O   0  0
    6.1117   26.2808   51.8774 C   0  0
    0.9632   27.9206   51.0766 Br  0  0
    6.6292   29.9942   50.1883 O   0  0
    6.7718   25.5557   54.1703 O   0  0
   -1.1289   32.5799   50.7966 C   0  0
   -0.8934   32.8641   47.9921 C   0  0
    6.9232   31.3754   49.9676 C   0  0
    5.4643   25.0517   54.4453 C   0  0
    4.5102   26.1568   54.9312 C   0  0
    6.6496   32.2498   51.2024 C   0  0
   -2.0643   33.3146   50.0690 C   0  0
   -1.9539   33.4453   48.6874 C   0  0
    4.3326   31.3327   49.5676 H   0  0
    3.5651   26.8511   51.4453 H   0  0
    6.2833   25.4792   51.1609 H   0  0
    5.1277   26.1023   52.2818 H   0  0
   -1.2335   32.4652   51.8654 H   0  0
   -0.8145   32.9584   46.9195 H   0  0
    7.9789   31.4469   49.7213 H   0  0
    6.4113   31.7556   49.0883 H   0  0
    5.5618   24.3043   55.2319 H   0  0
    5.0515   24.5224   53.5861 H   0  0
    3.5073   25.7579   55.0880 H   0  0
    4.4257   26.9767   54.2179 H   0  0
    4.8492   26.5778   55.8787 H   0  0
    6.9573   33.2803   51.0238 H   0  0
    7.2061   31.8853   52.0638 H   0  0
    5.5944   32.2634   51.4719 H   0  0
   -2.8924   33.7818   50.5812 H   0  0
   -2.7016   34.0082   48.1475 H   0  0
  1  2  1  0
  1  3  2  0
  1  4  1  0
  2  5  2  0
  2  6  1  0
  3  8  1  0
  4  9  1  0
  5  7  1  0
  5 16  1  0
  6 11  2  0
  6 27  1  0
  7 10  2  0
  7 28  1  0
  8  9  2  0
  8 19  1  0
  9 20  1  0
 10 11  1  0
 10 13  1  0
 11 17  1  0
 12 14  2  0
 12 15  1  0
 12 18  1  0
 13 15  1  0
 15 29  1  0
 15 30  1  0
 17 21  1  0
 18 22  1  0
 19 25  2  0
 19 31  1  0
 20 26  2  0
 20 32  1  0
 21 24  1  0
 21 33  1  0
 21 34  1  0
 22 23  1  0
 22 35  1  0
 22 36  1  0
 23 37  1  0
 23 38  1  0
 23 39  1  0
 24 40  1  0
 24 41  1  0
 24 42  1  0
 25 26  1  0
 25 43  1  0
 26 44  1  0
M  END
> <activity>
0

$$$$
ligand_418
  SciTegic10272118463D

 24 25  0  0  1  0            999 V2000
    8.0478   25.7939   57.4101 N   0  0
    7.3619   25.9443   56.3034 C   0  0
    7.2121   25.1202   58.2528 C   0  0
    6.0920   25.3902   56.3721 N   0  0
    7.4163   24.7190   59.5378 N   0  3
    5.9669   24.8391   57.6395 C   0  0
    7.9098   26.6724   55.0835 C   0  0
    4.9503   24.1592   58.3305 C   0  0
    6.4655   24.0566   60.2272 C   0  0
    5.2354   23.7745   59.6456 C   0  0
    7.1174   27.6766   54.7106 F   0  0
    9.1060   27.2020   55.3295 F   0  0
    8.0471   25.8439   54.0474 F   0  0
    8.7060   24.9583   60.1917 C   0  0
    5.1018   25.3586   55.3037 C   0  0
    3.9490   22.8450   60.6880 Br  0  0
    3.9874   23.9598   57.8930 H   0  0
    6.7116   23.7592   61.2358 H   0  0
    8.5747   24.9730   61.2736 H   0  0
    9.0914   25.9254   59.8637 H   0  0
    9.3822   24.1587   59.8891 H   0  0
    4.0990   25.3583   55.7299 H   0  0
    5.2424   24.4585   54.7037 H   0  0
    5.1868   26.2333   54.6608 H   0  0
  1  2  2  0
  1  3  1  0
  2  4  1  0
  2  7  1  0
  3  5  2  0
  3  6  1  0
  4  6  1  0
  4 15  1  0
  5  9  1  0
  5 14  1  0
  6  8  2  0
  7 11  1  0
  7 12  1  0
  7 13  1  0
  8 10  1  0
  8 17  1  0
  9 10  2  0
  9 18  1  0
 10 16  1  0
 14 19  1  0
 14 20  1  0
 14 21  1  0
 15 22  1  0
 15 23  1  0
 15 24  1  0
M  CHG  1   5   1
M  END
> <activity>
0

$$$$
ligand_419
  SciTegic10272118463D

 51 54  0  0  1  0            999 V2000
    6.4142   27.2422   52.3366 N   0  0
    6.1148   28.4063   51.6383 C   0  0
    7.0038   26.3578   51.5209 N   0  0
    7.0135   26.9583   50.2858 N   0  0
    6.4563   28.2290   50.3786 N   0  0
    5.4660   29.7107   52.1627 C   0  0
    6.0815   26.8039   53.6335 C   0  0
    4.0184   29.6622   51.8798 N   0  0
    7.0126   26.7765   54.6807 C   0  0
    4.8058   26.2837   53.8581 C   0  0
    3.1637   30.1982   50.9002 C   0  0
    1.2224   31.3153   49.2285 C   0  0
   -0.0940   32.1580   48.1449 Br  0  0
    5.5070   29.8728   53.7166 C   0  0
    6.2277   30.9524   51.5816 C   0  0
    1.8212   29.8287   51.0230 C   0  0
    3.5259   31.0892   49.8880 C   0  0
    0.8510   30.3868   50.1953 C   0  0
    2.5587   31.6528   49.0613 C   0  0
    5.4284   25.6599   56.1116 C   0  0
    6.6973   26.1580   55.8881 C   0  0
    4.4878   25.7539   55.0998 C   0  0
    8.3734   27.4087   54.5722 C   0  0
    3.7647   26.2534   52.7605 C   0  0
    5.7413   32.3377   52.0733 C   0  0
    4.9559   31.2364   54.2107 C   0  0
    5.7086   32.4093   53.6045 C   0  0
    3.5238   29.1066   52.5607 H   0  0
    4.9351   29.0891   54.2135 H   0  0
    6.5313   29.7578   54.0727 H   0  0
    6.3076   30.9155   50.4985 H   0  0
    7.2714   30.8616   51.8876 H   0  0
    1.5119   29.1328   51.7891 H   0  0
    4.5345   31.4033   49.7281 H   0  0
   -0.1850   30.1161   50.3200 H   0  0
    2.8408   32.3691   48.3034 H   0  0
    5.1680   25.2168   57.0621 H   0  0
    7.4262   26.1132   56.6852 H   0  0
    3.5060   25.3580   55.2839 H   0  0
    9.1061   26.6192   54.7142 H   0  0
    8.5110   28.1521   55.3583 H   0  0
    8.5486   27.8988   53.6156 H   0  0
    4.1676   25.7580   51.8789 H   0  0
    3.5059   27.2615   52.4653 H   0  0
    2.8532   25.7567   53.0880 H   0  0
    6.3901   33.1221   51.6806 H   0  0
    4.7443   32.5576   51.6971 H   0  0
    4.9771   31.2866   55.3003 H   0  0
    3.9201   31.3580   53.9064 H   0  0
    5.2971   33.3615   53.9422 H   0  0
    6.7060   32.3342   53.9947 H   0  0
  1  2  1  0
  1  3  1  0
  1  7  1  0
  2  5  2  0
  2  6  1  0
  3  4  2  0
  4  5  1  0
  6  8  1  0
  6 14  1  0
  6 15  1  0
  7  9  2  0
  7 10  1  0
  8 11  1  0
  8 28  1  0
  9 21  1  0
  9 23  1  0
 10 22  2  0
 10 24  1  0
 11 16  2  0
 11 17  1  0
 12 13  1  0
 12 18  2  0
 12 19  1  0
 14 26  1  0
 14 29  1  0
 14 30  1  0
 15 25  1  0
 15 31  1  0
 15 32  1  0
 16 18  1  0
 16 33  1  0
 17 19  2  0
 17 34  1  0
 18 35  1  0
 19 36  1  0
 20 21  2  0
 20 22  1  0
 20 37  1  0
 21 38  1  0
 22 39  1  0
 23 40  1  0
 23 41  1  0
 23 42  1  0
 24 43  1  0
 24 44  1  0
 24 45  1  0
 25 27  1  0
 25 46  1  0
 25 47  1  0
 26 27  1  0
 26 48  1  0
 26 49  1  0
 27 50  1  0
 27 51  1  0
M  END
> <activity>
0

$$$$
ligand_420
  SciTegic10272118463D

 32 33  0  0  1  0            999 V2000
    6.9067   26.1026   53.9788 N   0  0
    6.3009   26.3569   52.8454 C   0  0
    6.0514   25.8869   54.9721 C   0  0
    4.5669   26.2912   52.9045 S   0  0
    4.7061   25.9527   54.5949 C   0  0
    6.9559   26.6111   51.6529 N   0  0
    6.4609   27.4212   50.5914 N   0  0
    6.5308   25.5961   56.3616 C   0  0
    7.7813   26.0308   56.8206 C   0  0
    5.6971   24.8837   57.2315 C   0  0
    5.9822   28.5941   50.7862 C   0  0
    7.3553   24.9986   58.9576 C   0  0
    8.1790   25.7566   58.1280 C   0  0
    6.1160   24.5579   58.5142 C   0  0
    7.9060   24.5581   60.7190 Br  0  0
    5.1689   29.2786   49.6930 C   0  0
    6.1189   29.4185   52.0675 C   0  0
    3.6692   28.9606   49.8288 C   0  0
    3.8260   25.8200   55.2056 H   0  0
    7.4344   25.8066   51.2761 H   0  0
    8.4349   26.5984   56.1740 H   0  0
    4.7165   24.5585   56.9274 H   0  0
    9.1319   26.1085   58.4918 H   0  0
    5.4725   23.9893   59.1699 H   0  0
    5.5063   28.9588   48.7073 H   0  0
    5.3226   30.3578   49.7183 H   0  0
    6.9022   29.0433   52.7257 H   0  0
    5.1836   29.4225   52.6274 H   0  0
    6.3755   30.4536   51.8430 H   0  0
    3.1002   29.4373   49.0308 H   0  0
    3.2625   29.3142   50.7774 H   0  0
    3.4800   27.8874   49.7637 H   0  0
  1  2  2  0
  1  3  1  0
  2  4  1  0
  2  6  1  0
  3  5  2  0
  3  8  1  0
  4  5  1  0
  5 19  1  0
  6  7  1  0
  6 20  1  0
  7 11  2  0
  8  9  2  0
  8 10  1  0
  9 13  1  0
  9 21  1  0
 10 14  2  0
 10 22  1  0
 11 16  1  0
 11 17  1  0
 12 13  2  0
 12 14  1  0
 12 15  1  0
 13 23  1  0
 14 24  1  0
 16 18  1  0
 16 25  1  0
 16 26  1  0
 17 27  1  0
 17 28  1  0
 17 29  1  0
 18 30  1  0
 18 31  1  0
 18 32  1  0
M  END
> <activity>
0

$$$$
ligand_421
  SciTegic10272118463D

 31 32  0  0  1  0            999 V2000
    7.1572   26.9038   52.5021 C   0  0  2  0  0  0
    6.4653   26.3506   53.7756 C   0  0  2  0  0  0
    6.1591   27.0190   51.3184 C   0  0  2  0  0  0
    5.3440   27.1398   54.0749 O   0  0
    7.4066   26.3341   54.8605 N   0  0
    4.8623   27.7232   51.7587 C   0  0  2  0  0  0
    4.3347   27.1074   53.0632 C   0  0
    8.3061   26.1580   52.1345 O   0  0
    7.1543   25.7800   56.1270 C   0  0
    5.9052   25.7719   50.6892 O   0  0
    6.7488   24.7936   58.7009 C   0  0
    3.8743   27.7595   50.7403 O   0  0
    6.4627   24.1585   60.4698 Br  0  0
    5.9940   25.0570   56.4273 C   0  0
    8.1043   26.0036   57.1232 C   0  0
    7.9058   25.5099   58.4083 C   0  0
    5.7934   24.5584   57.7149 C   0  0
    7.5058   27.9106   52.7371 H   0  0
    6.0923   25.3315   53.6433 H   0  0
    6.6194   27.6165   50.5288 H   0  0
    8.0131   27.1392   54.8875 H   0  0
    5.0925   28.7703   51.9625 H   0  0
    3.9588   26.0935   52.9165 H   0  0
    3.5081   27.7113   53.4293 H   0  0
    8.5662   26.4168   51.2460 H   0  0
    5.6223   25.1294   51.3490 H   0  0
    3.7337   26.8704   50.3879 H   0  0
    5.2322   24.8945   55.6816 H   0  0
    9.0062   26.5575   56.9069 H   0  0
    8.6444   25.6874   59.1760 H   0  0
    4.8900   24.0148   57.9510 H   0  0
  1  2  1  0
  1  3  1  0
  1  8  1  0
  1 18  1  0
  2  4  1  0
  2  5  1  0
  2 19  1  0
  3  6  1  0
  3 10  1  0
  3 20  1  0
  4  7  1  0
  5  9  1  0
  5 21  1  0
  6  7  1  0
  6 12  1  0
  6 22  1  0
  7 23  1  0
  7 24  1  0
  8 25  1  0
  9 14  1  0
  9 15  2  0
 10 26  1  0
 11 13  1  0
 11 16  2  0
 11 17  1  0
 12 27  1  0
 14 17  2  0
 14 28  1  0
 15 16  1  0
 15 29  1  0
 16 30  1  0
 17 31  1  0
M  END
> <activity>
0

$$$$
ligand_422
  SciTegic10272118463D

 26 27  0  0  1  0            999 V2000
    5.0615   25.3583   55.2123 N   0  0
    6.1773   25.7480   55.6475 N   0  0
    4.7459   25.7263   53.8885 N   0  0
    6.4990   25.3412   56.9549 C   0  0
    5.1504   26.8573   53.1575 C   0  0
    5.8415   29.0622   51.5893 C   0  0
    7.3504   24.6204   59.5287 C   0  0
    7.9025   24.1581   61.0878 Cl  0  0
    6.3089   30.5596   50.5099 Br  0  0
    5.6838   24.5583   57.8023 C   0  0
    7.7376   25.7586   57.4484 C   0  0
    5.0448   26.7968   51.7658 C   0  0
    5.5998   28.0410   53.7584 C   0  0
    8.1602   25.4123   58.7270 C   0  0
    5.9511   29.1392   52.9759 C   0  0
    5.3844   27.8965   50.9828 C   0  0
    6.1061   24.1971   59.0781 C   0  0
    3.8545   25.3464   53.6123 H   0  0
    4.7065   24.2288   57.4876 H   0  0
    8.3832   26.3657   56.8306 H   0  0
    4.6957   25.8958   51.2811 H   0  0
    5.6643   28.1227   54.8324 H   0  0
    9.1173   25.7484   59.0938 H   0  0
    6.2969   30.0497   53.4437 H   0  0
    5.2857   27.8499   49.9092 H   0  0
    5.4713   23.5951   59.7122 H   0  0
  1  2  2  0
  1  3  1  0
  2  4  1  0
  3  5  1  0
  3 18  1  0
  4 10  1  0
  4 11  2  0
  5 12  1  0
  5 13  2  0
  6  9  1  0
  6 15  2  0
  6 16  1  0
  7  8  1  0
  7 14  2  0
  7 17  1  0
 10 17  2  0
 10 19  1  0
 11 14  1  0
 11 20  1  0
 12 16  2  0
 12 21  1  0
 13 15  1  0
 13 22  1  0
 14 23  1  0
 15 24  1  0
 16 25  1  0
 17 26  1  0
M  END
> <activity>
0

$$$$
ligand_423
  SciTegic10272118463D

 37 42  0  0  1  0            999 V2000
    3.9090   29.3557   49.8472 C   0  0  2  0  0  0
    3.9461   28.7664   51.2821 C   0  0  1  0  0  0
    5.1415   27.7891   51.2983 C   0  0  1  0  0  0
    5.4278   29.7345   49.7138 C   0  0  2  0  0  0
    6.0937   28.9164   50.8872 C   0  0  1  0  0  0
    4.3989   30.0580   52.0728 C   0  0  2  0  0  0
    4.1280   31.2164   51.0610 C   0  0  1  0  0  0
    5.9541   29.9386   52.0331 C   0  0  2  0  0  0
    5.4641   31.1965   50.2901 C   0  0  1  0  0  0
    3.1790   30.6772   50.0128 C   0  0  2  0  0  0
    6.4825   31.2167   51.4141 C   0  0
    5.4700   27.0639   52.6270 C   0  0
    3.3151   28.5862   48.8218 O   0  0
    5.1056   26.7656   50.3168 O   0  0
    1.3121   30.4359   50.6845 Br  0  0
    4.6918   27.2423   53.7730 C   0  0
    6.5615   26.1915   52.7049 C   0  0
    4.9719   26.5550   54.9469 C   0  0
    6.8411   25.4986   53.8763 C   0  0
    6.0447   25.6782   54.9975 C   0  0
    2.9927   28.3466   51.6045 H   0  0
    5.8693   29.5952   48.7285 H   0  0
    7.1177   28.6092   50.6985 H   0  0
    3.9801   30.2088   53.0633 H   0  0
    3.8689   32.1842   51.4934 H   0  0
    6.4295   29.6431   52.9707 H   0  0
    5.5702   31.9966   49.5606 H   0  0
    3.1095   31.2721   49.1001 H   0  0
    7.5167   31.1356   51.0723 H   0  0
    6.3927   32.0827   52.0755 H   0  0
    3.9021   27.8526   48.5764 H   0  0
    4.2504   26.3163   50.3604 H   0  0
    3.8485   27.9126   53.7711 H   0  0
    7.1796   26.0224   51.8344 H   0  0
    4.3516   26.7025   55.8205 H   0  0
    7.6678   24.8065   53.9078 H   0  0
    6.2599   25.1389   55.9072 H   0  0
  1  2  1  0
  1  4  1  0
  1 10  1  0
  1 13  1  0
  2  3  1  0
  2  6  1  0
  2 21  1  0
  3  5  1  0
  3 12  1  0
  3 14  1  0
  4  5  1  0
  4  9  1  0
  4 22  1  0
  5  8  1  0
  5 23  1  0
  6  7  1  0
  6  8  1  0
  6 24  1  0
  7  9  1  0
  7 10  1  0
  7 25  1  0
  8 11  1  0
  8 26  1  0
  9 11  1  0
  9 27  1  0
 10 15  1  0
 10 28  1  0
 11 29  1  0
 11 30  1  0
 12 16  2  0
 12 17  1  0
 13 31  1  0
 14 32  1  0
 16 18  1  0
 16 33  1  0
 17 19  2  0
 17 34  1  0
 18 20  2  0
 18 35  1  0
 19 20  1  0
 19 36  1  0
 20 37  1  0
M  END
> <activity>
0

$$$$
ligand_424
  SciTegic10272118463D

 33 34  0  0  1  0            999 V2000
    6.5461   26.0444   54.8734 N   0  0
    7.3194   27.0741   54.3456 C   0  0
    5.7180   25.6258   53.8283 C   0  0
    5.9877   26.3444   52.6619 C   0  0
    6.9768   27.2387   53.0214 C   0  0
    6.6032   25.5230   56.2123 C   0  0
    5.4616   25.1040   56.9111 C   0  0
    5.5468   24.5580   58.1983 C   0  0
    7.8303   25.4074   56.8643 C   0  0
    6.7729   24.5835   58.8574 C   0  0
    7.9060   25.0035   58.1902 C   0  0
    5.3382   26.2314   51.2934 C   0  0
    8.3360   27.8933   55.0941 C   0  0
    6.9439   24.1064   60.6880 Br  0  0
    4.6898   24.5469   54.0166 C   0  0
    6.3316   26.1580   50.2880 O   0  0
    4.3178   23.9953   58.8848 C   0  0
    7.4086   27.9697   52.3541 H   0  0
    4.4835   25.2057   56.4782 H   0  0
    8.7434   25.6349   56.3608 H   0  0
    8.8609   24.9879   58.6953 H   0  0
    4.7002   27.0920   51.0901 H   0  0
    4.7060   25.3530   51.2032 H   0  0
    8.7663   28.5580   54.3595 H   0  0
    9.1951   27.3605   55.4880 H   0  0
    7.9060   28.5013   55.8880 H   0  0
    5.1060   23.6943   54.5540 H   0  0
    4.2938   24.1580   53.0880 H   0  0
    3.8237   24.9476   54.5380 H   0  0
    6.8565   25.3687   50.4435 H   0  0
    3.9891   24.6489   59.6930 H   0  0
    4.5327   23.0149   59.3110 H   0  0
    3.5060   23.8643   58.1756 H   0  0
  1  2  1  0
  1  3  1  0
  1  6  1  0
  2  5  2  0
  2 13  1  0
  3  4  2  0
  3 15  1  0
  4  5  1  0
  4 12  1  0
  5 18  1  0
  6  7  2  0
  6  9  1  0
  7  8  1  0
  7 19  1  0
  8 10  2  0
  8 17  1  0
  9 11  2  0
  9 20  1  0
 10 11  1  0
 10 14  1  0
 11 21  1  0
 12 16  1  0
 12 22  1  0
 12 23  1  0
 13 24  1  0
 13 25  1  0
 13 26  1  0
 15 27  1  0
 15 28  1  0
 15 29  1  0
 16 30  1  0
 17 31  1  0
 17 32  1  0
 17 33  1  0
M  END
> <activity>
0

$$$$
ligand_425
  SciTegic10272118463D

 40 43  0  0  1  0            999 V2000
    4.7185   29.4635   51.6571 N   0  0
    3.9567   28.3537   51.5599 C   0  0
    4.3320   30.5432   50.9326 C   0  0
    2.8474   28.2242   50.8088 N   0  0
    3.1811   30.5248   50.0962 C   0  0
    2.4643   29.2967   50.0718 C   0  0
    5.1143   31.7099   51.0193 N   0  0
    4.2676   27.2008   52.2764 N   0  0
    5.7653   32.2736   53.3238 C   0  0
    5.5055   33.5976   53.4891 O   0  0
    5.5059   31.6021   54.5107 C   0  0
    5.1056   33.7713   54.7742 C   0  0
    5.1002   32.5587   55.4418 C   0  0
    6.2294   31.8439   51.9521 C   0  0
    5.1575   26.9032   53.3183 C   0  0
    6.8143   26.2034   55.4456 C   0  0
    7.9060   25.7585   56.9369 Br  0  0
    4.8761   25.7708   54.0867 C   0  0
    6.2899   27.6739   53.6107 C   0  0
    5.7016   25.4225   55.1519 C   0  0
    7.1172   27.3240   54.6750 C   0  0
    2.7053   31.6081   49.3085 C   0  0
    1.3164   29.1860   49.2604 C   0  0
    1.5691   31.4669   48.5191 C   0  0
    0.8791   30.2621   48.4953 C   0  0
    4.7708   32.5465   50.5749 H   0  0
    3.5630   26.5046   52.0990 H   0  0
    5.6029   30.5397   54.6785 H   0  0
    4.8691   34.7844   55.0623 H   0  0
    4.8231   32.3824   56.4708 H   0  0
    6.9211   32.5826   51.5452 H   0  0
    6.7877   30.9085   52.0091 H   0  0
    4.0086   25.1631   53.8728 H   0  0
    6.5427   28.5432   53.0259 H   0  0
    5.4770   24.5578   55.7561 H   0  0
    7.9806   27.9285   54.9115 H   0  0
    3.2284   32.5541   49.3163 H   0  0
    0.7766   28.2495   49.2478 H   0  0
    1.2206   32.2987   47.9232 H   0  0
   -0.0069   30.1605   47.8869 H   0  0
  1  2  1  0
  1  3  2  0
  2  4  2  0
  2  8  1  0
  3  5  1  0
  3  7  1  0
  4  6  1  0
  5  6  2  0
  5 22  1  0
  6 23  1  0
  7 14  1  0
  7 26  1  0
  8 15  1  0
  8 27  1  0
  9 10  1  0
  9 11  2  0
  9 14  1  0
 10 12  1  0
 11 13  1  0
 11 28  1  0
 12 13  2  0
 12 29  1  0
 13 30  1  0
 14 31  1  0
 14 32  1  0
 15 18  2  0
 15 19  1  0
 16 17  1  0
 16 20  2  0
 16 21  1  0
 18 20  1  0
 18 33  1  0
 19 21  2  0
 19 34  1  0
 20 35  1  0
 21 36  1  0
 22 24  2  0
 22 37  1  0
 23 25  2  0
 23 38  1  0
 24 25  1  0
 24 39  1  0
 25 40  1  0
M  END
> <activity>
0

$$$$
ligand_426
  SciTegic10272118463D

 52 55  0  0  1  0            999 V2000
    6.3779   28.7463   52.0306 C   0  0
    5.9080   30.0039   52.3440 N   0  0
    0.0928   32.4629   49.4643 C   0  0
   -1.0005   33.3159   49.6810 C   0  0
    6.7059   28.6740   50.7644 N   0  0
    5.8628   30.6431   51.1193 C   0  0
    6.3558   27.5733   52.9506 C   0  0
    0.0209   31.7579   47.8877 S   0  0
    6.4091   29.9026   50.1910 N   0  0
   -1.8482   33.4083   48.5473 C   0  0
   -1.4485   32.5591   47.5107 C   0  0
    1.1311   32.1585   50.3484 N   0  0
   -1.2151   34.0521   50.9207 C   0  0
   -1.3825   34.6330   51.9066 N   0  0
    5.0437   32.1580   50.7619 S   0  0
    2.3556   31.6793   50.0305 C   0  0
    5.4401   26.5312   52.7419 C   0  0
    7.2119   27.5135   54.0502 C   0  0
    5.3773   30.4579   53.6274 C   0  0
    2.7045   31.3274   48.9056 O   0  0
    3.3609   31.5611   51.1717 C   0  0
    5.7747   31.8533   54.0683 C   0  0
    5.3647   25.4584   53.6275 C   0  0
    5.5061   32.3565   55.2836 C   0  0
    7.1420   26.4279   54.9222 C   0  0
   -3.0667   34.3131   48.3680 C   0  0
    6.2216   25.4039   54.7200 C   0  0
    4.5887   26.5601   51.6687 O   0  0
    8.3058   26.3429   56.4184 Br  0  0
   -2.1681   32.3492   46.1834 C   0  0
   -4.0611   33.6319   47.3989 C   0  0
   -3.4109   33.2594   46.0590 C   0  0
    0.9923   32.4604   51.3001 H   0  0
    7.9221   28.3076   54.2338 H   0  0
    4.3061   30.4310   53.5183 H   0  0
    5.6217   29.7406   54.4108 H   0  0
    3.0519   32.0626   52.0853 H   0  0
    3.3746   30.4979   51.4133 H   0  0
    6.3014   32.4674   53.3517 H   0  0
    4.6507   24.6626   53.4711 H   0  0
    4.9794   31.7755   56.0272 H   0  0
    5.8097   33.3588   55.5498 H   0  0
   -3.5551   34.5603   49.3104 H   0  0
   -2.7556   35.2722   47.9509 H   0  0
    6.1718   24.5730   55.4083 H   0  0
    4.0794   25.7575   51.5405 H   0  0
   -1.4997   32.5572   45.3478 H   0  0
   -2.4630   31.3028   46.0950 H   0  0
   -4.8957   34.3066   47.2074 H   0  0
   -4.4868   32.7334   47.8488 H   0  0
   -4.1470   32.7798   45.4132 H   0  0
   -3.1437   34.1756   45.5349 H   0  0
  1  2  1  0
  1  5  2  0
  1  7  1  0
  2  6  1  0
  2 19  1  0
  3  4  2  0
  3  8  1  0
  3 12  1  0
  4 10  1  0
  4 13  1  0
  5  9  1  0
  6  9  2  0
  6 15  1  0
  7 17  2  0
  7 18  1  0
  8 11  1  0
 10 11  2  0
 10 26  1  0
 11 30  1  0
 12 16  1  0
 12 33  1  0
 13 14  3  0
 15 21  1  0
 16 20  2  0
 16 21  1  0
 17 23  1  0
 17 28  1  0
 18 25  2  0
 18 34  1  0
 19 22  1  0
 19 35  1  0
 19 36  1  0
 21 37  1  0
 21 38  1  0
 22 24  2  0
 22 39  1  0
 23 27  2  0
 23 40  1  0
 24 41  1  0
 24 42  1  0
 25 27  1  0
 25 29  1  0
 26 31  1  0
 26 43  1  0
 26 44  1  0
 27 45  1  0
 28 46  1  0
 30 32  1  0
 30 47  1  0
 30 48  1  0
 31 32  1  0
 31 49  1  0
 31 50  1  0
 32 51  1  0
 32 52  1  0
M  END
> <activity>
0

$$$$
ligand_427
  SciTegic10272118463D

 32 33  0  0  1  0            999 V2000
    5.3326   28.2697   51.2733 C   0  0
    5.4134   27.6676   52.5073 N   0  0
    6.3697   26.6874   52.3812 C   0  0
    6.1530   27.7204   50.4076 N   0  0
    6.8139   26.7824   51.0636 C   0  0
    4.4480   29.4181   50.9344 C   0  0
    6.7746   25.8317   53.4966 C   0  0
    4.4230   30.5977   51.6968 C   0  0
    3.6423   29.3028   49.8015 C   0  0
    4.7059   28.0332   53.6426 O   0  0
    7.9059   25.3582   53.5535 O   0  0
    3.5665   31.6419   51.3124 C   0  0
    2.8053   30.3481   49.4357 C   0  0
    7.9058   26.0260   50.3551 C   0  0
    2.7588   31.5157   50.1872 C   0  0
    1.7223   30.1733   47.8881 Br  0  0
    5.2641   30.6703   52.7958 O   0  0
    5.7765   25.4590   54.5912 C   0  0
    5.2985   31.8575   53.5815 C   0  0
    3.6608   28.3999   49.2052 H   0  0
    4.9671   28.9471   53.7963 H   0  0
    3.5120   32.5577   51.8769 H   0  0
    8.8334   26.1576   50.9065 H   0  0
    8.0853   26.3798   49.3386 H   0  0
    7.7040   24.9589   50.2880 H   0  0
    2.1026   32.3218   49.8948 H   0  0
    4.7971   25.2536   54.1591 H   0  0
    5.6787   26.2704   55.3116 H   0  0
    6.1080   24.5664   55.1206 H   0  0
    6.0213   31.7343   54.3879 H   0  0
    4.3300   32.0617   54.0397 H   0  0
    5.6097   32.7209   52.9915 H   0  0
  1  2  1  0
  1  4  2  0
  1  6  1  0
  2  3  1  0
  2 10  1  0
  3  5  2  0
  3  7  1  0
  4  5  1  0
  5 14  1  0
  6  8  2  0
  6  9  1  0
  7 11  2  0
  7 18  1  0
  8 12  1  0
  8 17  1  0
  9 13  2  0
  9 20  1  0
 10 21  1  0
 12 15  2  0
 12 22  1  0
 13 15  1  0
 13 16  1  0
 14 23  1  0
 14 24  1  0
 14 25  1  0
 15 26  1  0
 17 19  1  0
 18 27  1  0
 18 28  1  0
 18 29  1  0
 19 30  1  0
 19 31  1  0
 19 32  1  0
M  END
> <activity>
0

$$$$
ligand_428
  SciTegic10272118463D

 35 37  0  0  1  0            999 V2000
    6.5128   25.3835   56.4666 C   0  0
    5.2054   25.4536   56.0617 N   0  0
    4.4060   26.7000   52.2638 C   0  0
    5.2379   25.7407   54.7246 C   0  0
    7.2990   25.5821   55.4332 N   0  0
    3.7975   25.9368   53.7265 S   0  0
    6.4869   25.8307   54.3327 N   0  0
    3.9399   27.7178   51.4269 C   0  0
    6.9722   25.2177   57.8797 C   0  0
    5.5503   26.1802   51.7646 O   0  0
    4.9297   27.8882   50.4611 C   0  0
    5.8879   26.9194   50.6881 C   0  0
    6.1945   24.6265   58.8902 C   0  0
    7.1063   26.5794   50.0043 C   0  0
    2.3056   28.6889   51.4880 Br  0  0
    7.9060   25.7580   50.4321 O   0  0
    8.2187   25.7580   58.1937 C   0  0
    4.9106   24.2171   58.5674 O   0  0
    6.6942   24.6420   60.1985 C   0  0
    4.3062   23.0489   59.1284 C   0  0
    8.6954   25.7318   59.4880 C   0  0
    4.2066   22.9576   60.6577 C   0  0
    7.9343   25.1721   60.4909 C   0  0
    4.3868   25.3580   56.6497 H   0  0
    4.9124   28.6075   49.6552 H   0  0
    7.2879   27.1348   49.0880 H   0  0
    8.8312   26.2245   57.4353 H   0  0
    6.1365   24.3250   61.0548 H   0  0
    3.3172   22.9580   58.6892 H   0  0
    4.7060   22.1420   58.7150 H   0  0
    9.6533   26.1656   59.7110 H   0  0
    3.4058   22.2885   60.9624 H   0  0
    3.9796   23.9320   61.0889 H   0  0
    5.1061   22.5515   61.1118 H   0  0
    8.3009   25.1789   61.5053 H   0  0
  1  2  1  0
  1  5  2  0
  1  9  1  0
  2  4  1  0
  2 24  1  0
  3  6  1  0
  3  8  2  0
  3 10  1  0
  4  6  1  0
  4  7  2  0
  5  7  1  0
  8 11  1  0
  8 15  1  0
  9 13  2  0
  9 17  1  0
 10 12  1  0
 11 12  2  0
 11 25  1  0
 12 14  1  0
 13 18  1  0
 13 19  1  0
 14 16  2  0
 14 26  1  0
 17 21  2  0
 17 27  1  0
 18 20  1  0
 19 23  2  0
 19 28  1  0
 20 22  1  0
 20 29  1  0
 20 30  1  0
 21 23  1  0
 21 31  1  0
 22 32  1  0
 22 33  1  0
 22 34  1  0
 23 35  1  0
M  END
> <activity>
0

$$$$
ligand_429
  SciTegic10272118463D

 42 45  0  0  1  0            999 V2000
    6.1880   27.6583   53.9419 C   0  0
    5.1400   27.0982   53.2367 C   0  0
    6.2021   26.0644   55.5958 C   0  0
    6.7180   27.1451   55.0880 N   0  0
    4.5260   25.9165   53.8001 C   0  0
    5.2007   25.4534   54.8788 N   0  0
    6.5354   25.4736   56.9150 C   0  0
    6.7060   29.1319   53.2391 S   0  0
    4.8000   27.8193   52.0775 C   0  0
    5.5615   28.9861   51.9540 C   0  0
    7.7733   25.6512   57.5451 C   0  0
    5.5708   24.7145   57.5918 C   0  0
    8.0008   25.1277   58.8175 C   0  0
    5.7948   24.1580   58.8424 C   0  0
    7.0250   24.3634   59.4733 C   0  0
    3.5060   25.3580   53.4880 O   0  0
    9.2026   26.5580   56.6898 Br  0  0
    3.7617   27.4296   51.0404 C   0  0
    4.7976   23.3580   59.3523 O   0  0
    7.2259   23.7580   60.6918 O   0  0
    5.3918   30.0449   50.8735 C   0  0
    8.3060   24.1874   61.4880 C   0  0
    4.3060   23.6632   60.6496 C   0  0
    3.3271   28.6646   50.2233 C   0  0
    4.5345   29.4777   49.7224 C   0  0
    4.8005   24.6126   55.2595 H   0  0
    4.5996   24.5583   57.1764 H   0  0
    8.9655   25.2921   59.2712 H   0  0
    4.2247   26.6956   50.3798 H   0  0
    2.8866   26.9580   51.4879 H   0  0
    4.9050   30.9244   51.2967 H   0  0
    6.3547   30.3867   50.4920 H   0  0
    8.2234   23.7580   62.4817 H   0  0
    8.3060   25.2735   61.5864 H   0  0
    9.2559   23.8548   61.0728 H   0  0
    3.5060   22.9580   60.8644 H   0  0
    3.9060   24.6773   60.6887 H   0  0
    5.0312   23.5392   61.4507 H   0  0
    2.6816   29.3009   50.8314 H   0  0
    2.7214   28.3390   49.3761 H   0  0
    5.1565   28.8462   49.0881 H   0  0
    4.1886   30.2929   49.0881 H   0  0
  1  2  2  0
  1  4  1  0
  1  8  1  0
  2  5  1  0
  2  9  1  0
  3  4  2  0
  3  6  1  0
  3  7  1  0
  5  6  1  0
  5 16  2  0
  6 26  1  0
  7 11  2  0
  7 12  1  0
  8 10  1  0
  9 10  2  0
  9 18  1  0
 10 21  1  0
 11 13  1  0
 11 17  1  0
 12 14  2  0
 12 27  1  0
 13 15  2  0
 13 28  1  0
 14 15  1  0
 14 19  1  0
 15 20  1  0
 18 24  1  0
 18 29  1  0
 18 30  1  0
 19 23  1  0
 20 22  1  0
 21 25  1  0
 21 31  1  0
 21 32  1  0
 22 33  1  0
 22 34  1  0
 22 35  1  0
 23 36  1  0
 23 37  1  0
 23 38  1  0
 24 25  1  0
 24 39  1  0
 24 40  1  0
 25 41  1  0
 25 42  1  0
M  END
> <activity>
0

$$$$
ligand_430
  SciTegic10272118463D

 31 32  0  0  1  0            999 V2000
    6.9984   26.7329   53.9222 N   0  0
    6.8678   26.1574   55.1988 C   0  0
    7.5484   26.0171   52.9282 N   0  0
    6.4827   27.9360   53.4852 C   0  0
    6.7059   27.9235   52.1249 C   0  0
    7.8894   26.2677   56.1498 C   0  0
    5.6700   25.5173   55.5350 C   0  0
    7.3221   26.7074   51.8322 C   0  0
    7.6978   25.7580   57.4437 C   0  0
    5.5060   24.9935   56.8137 C   0  0
    6.5128   25.0859   57.7684 C   0  0
    4.2415   25.3582   54.2810 Br  0  0
    5.7925   28.9433   54.3724 C   0  0
    7.6986   26.1583   50.4834 C   0  0
    8.7409   25.9931   58.5142 C   0  0
    6.2691   24.5122   59.1593 C   0  0
    6.4154   28.6857   51.4176 H   0  0
    8.8027   26.7902   55.9018 H   0  0
    4.5602   24.5581   57.0883 H   0  0
    4.9708   28.4915   54.9287 H   0  0
    5.3678   29.7658   53.7963 H   0  0
    6.4860   29.3821   55.0880 H   0  0
    7.0270   25.3580   50.1882 H   0  0
    8.7060   25.7574   50.4817 H   0  0
    7.6451   26.9133   49.6991 H   0  0
    8.3270   26.5576   59.3475 H   0  0
    9.5840   26.5578   58.1247 H   0  0
    9.1060   25.0440   58.9052 H   0  0
    6.2908   25.3035   59.9097 H   0  0
    7.0368   23.7796   59.4103 H   0  0
    5.3013   24.0143   59.2340 H   0  0
  1  2  1  0
  1  3  1  0
  1  4  1  0
  2  6  2  0
  2  7  1  0
  3  8  2  0
  4  5  2  0
  4 13  1  0
  5  8  1  0
  5 17  1  0
  6  9  1  0
  6 18  1  0
  7 10  2  0
  7 12  1  0
  8 14  1  0
  9 11  2  0
  9 15  1  0
 10 11  1  0
 10 19  1  0
 11 16  1  0
 13 20  1  0
 13 21  1  0
 13 22  1  0
 14 23  1  0
 14 24  1  0
 14 25  1  0
 15 26  1  0
 15 27  1  0
 15 28  1  0
 16 29  1  0
 16 30  1  0
 16 31  1  0
M  END
> <activity>
0

$$$$
ligand_431
  SciTegic10272118463D

 41 43  0  0  1  0            999 V2000
    4.0908   29.5930   50.8203 C   0  0
    2.1340   28.1580   50.5454 N   0  0
    2.3263   30.0662   49.2538 N   0  0
    3.3765   28.4664   51.0880 C   0  0
    5.5528   29.9255   51.3408 C   0  0  1  0  0  0
    1.7028   28.8494   49.4342 C   0  0
    3.3619   30.5836   49.9959 C   0  0
    6.3385   30.8466   50.3511 C   0  0
    5.5119   30.8209   52.5438 C   0  0
    6.4723   32.0509   50.9224 N   0  0
    5.9591   32.0799   52.1952 C   0  0
    5.1060   30.5711   53.8531 C   0  0
    5.9060   33.1377   53.0880 C   0  0
    6.4963   28.6929   51.6352 C   0  0
    6.7060   26.7496   49.8880 N   0  0
    6.4309   27.5615   54.0132 N   0  0
    5.4837   32.8644   54.3838 C   0  0
    5.0612   31.6128   54.7749 C   0  0
    6.4494   28.0608   52.9676 C   0  0
    6.6014   27.6144   50.6463 C   0  0
    0.8002   28.4470   48.6885 O   0  0
    3.6215   31.7891   49.9956 O   0  0
    6.7060   30.5580   49.2227 O   0  0
    3.8146   27.5344   51.8602 O   0  5
    1.1428   27.2012   51.0880 C   0  0
    1.7418   30.9751   48.2404 C   0  0
    5.5060   34.1580   55.7204 Br  0  0
    4.4040   31.4840   56.1449 C   0  0
    6.9018   32.8343   50.4563 H   0  0
    4.7096   29.6061   54.1344 H   0  0
    6.2522   34.1265   52.8237 H   0  0
    7.5059   29.0890   51.6622 H   0  0
    0.3751   27.7322   51.6512 H   0  0
    1.6020   26.4753   51.7555 H   0  0
    0.6484   26.6263   50.3031 H   0  0
    1.1076   31.7186   48.7243 H   0  0
    1.1438   30.4604   47.4880 H   0  0
    2.5235   31.5070   47.6947 H   0  0
    3.9056   30.5580   56.2880 H   0  0
    3.6122   32.2269   56.2502 H   0  0
    5.1060   31.6377   56.9610 H   0  0
  1  4  2  0
  1  5  1  0
  1  7  1  0
  2  4  1  0
  2  6  1  0
  2 25  1  0
  3  6  1  0
  3  7  1  0
  3 26  1  0
  4 24  1  0
  5  8  1  0
  5  9  1  0
  5 14  1  0
  6 21  2  0
  7 22  2  0
  8 10  1  0
  8 23  2  0
  9 11  2  0
  9 12  1  0
 10 11  1  0
 10 29  1  0
 11 13  1  0
 12 18  2  0
 12 30  1  0
 13 17  2  0
 13 31  1  0
 14 19  1  0
 14 20  1  0
 14 32  1  0
 15 20  3  0
 16 19  3  0
 17 18  1  0
 17 27  1  0
 18 28  1  0
 25 33  1  0
 25 34  1  0
 25 35  1  0
 26 36  1  0
 26 37  1  0
 26 38  1  0
 28 39  1  0
 28 40  1  0
 28 41  1  0
M  CHG  1  24  -1
M  END
> <activity>
0

$$$$
ligand_432
  SciTegic10272118463D

 36 38  0  0  1  0            999 V2000
    5.9068   28.4373   53.4688 N   0  0
    6.3748   27.0165   53.6205 C   0  0  1  0  0  0
    5.2624   28.7887   52.2421 C   0  0
    5.0431   28.0173   51.2456 N   0  0
    6.0538   26.4743   55.0644 C   0  0
    5.5867   26.7453   51.2330 C   0  0
    5.5916   26.0823   52.6285 C   0  0
    7.0801   25.9715   55.7938 N   0  0
    6.2682   29.4084   54.4090 C   0  0
    4.8261   30.1761   52.1841 C   0  0
    4.8999   26.5517   55.4909 O   0  0
    7.0737   25.5096   57.1214 C   0  0
    6.0915   26.1577   50.2870 O   0  0
    6.0156   24.7921   57.6858 C   0  0
    5.9034   30.7012   54.2928 C   0  0
    5.1241   31.0949   53.1317 C   0  0
    6.1163   24.3550   59.0053 C   0  0
    7.9054   26.9694   53.3222 C   0  0
    4.7065   23.3602   59.7923 Br  0  0
    8.3042   25.3415   59.2055 C   0  0
    8.2152   25.7611   57.8825 C   0  0
    7.2489   24.6345   59.7626 C   0  0
    6.0463   25.0950   52.5625 H   0  0
    4.5457   25.9410   52.9101 H   0  0
    7.9952   26.0365   55.3761 H   0  0
    6.8690   29.0728   55.2413 H   0  0
    4.2362   30.4998   51.3418 H   0  0
    5.1251   24.5701   57.1159 H   0  0
    6.2008   31.4313   55.0303 H   0  0
    4.7679   32.1104   53.0369 H   0  0
    8.1193   27.3389   52.3198 H   0  0
    8.2978   25.9547   53.3646 H   0  0
    8.4708   27.5866   54.0205 H   0  0
    9.1865   25.5568   59.7930 H   0  0
    9.0471   26.3062   57.4592 H   0  0
    7.3101   24.2975   60.7865 H   0  0
  1  2  1  0
  1  3  1  0
  1  9  1  0
  2  5  1  0
  2  7  1  0
  2 18  1  0
  3  4  2  0
  3 10  1  0
  4  6  1  0
  5  8  1  0
  5 11  2  0
  6  7  1  0
  6 13  2  0
  7 23  1  0
  7 24  1  0
  8 12  1  0
  8 25  1  0
  9 15  2  0
  9 26  1  0
 10 16  2  0
 10 27  1  0
 12 14  2  0
 12 21  1  0
 14 17  1  0
 14 28  1  0
 15 16  1  0
 15 29  1  0
 16 30  1  0
 17 19  1  0
 17 22  2  0
 18 31  1  0
 18 32  1  0
 18 33  1  0
 20 21  2  0
 20 22  1  0
 20 34  1  0
 21 35  1  0
 22 36  1  0
M  END
> <activity>
0

$$$$
ligand_433
  SciTegic10272118463D

 41 42  0  0  1  0            999 V2000
    4.9673   26.7750   51.6297 C   0  0  2  0  0  0
    6.1154   27.1822   50.6880 C   0  0
    5.3879   29.6918   50.8072 C   0  0  1  0  0  0
    3.7887   27.8079   51.5767 C   0  0  2  0  0  0
    6.5396   28.6495   50.8076 C   0  0
    2.9822   27.7580   50.2880 C   0  0
    5.4780   26.6056   53.0837 C   0  0
    4.2634   29.2510   51.7839 C   0  0
    1.6970   28.1202   50.1354 C   0  0
    5.9433   31.0676   51.1782 C   0  0
    6.6544   26.4037   49.9028 O   0  0
    5.3437   31.8792   52.1500 C   0  0
    6.5533   27.0689   53.4801 O   0  0
    4.8892   29.7860   49.4880 O   0  0
    0.7060   28.7511   51.4507 Cl  0  0
    0.8916   27.9856   48.5749 Cl  0  0
    5.9252   33.0803   52.5081 C   0  0
    4.6046   25.9285   53.8584 O   0  0
    5.1060   34.1128   53.8889 Br  0  0
    7.1060   31.5126   50.5510 C   0  0
    7.7073   32.6929   50.9254 C   0  0
    7.1060   33.4842   51.8880 C   0  0
    4.8029   25.8161   55.2667 C   0  0
    6.0209   24.9580   55.6501 C   0  0
    4.6178   25.7963   51.2992 H   0  0
    3.1060   27.5838   52.3876 H   0  0
    7.1060   28.7418   51.7322 H   0  0
    7.2317   28.8411   49.9929 H   0  0
    3.5060   27.3765   49.4241 H   0  0
    4.6247   29.3334   52.8109 H   0  0
    3.4094   29.9280   51.7170 H   0  0
    4.4388   31.6006   52.6660 H   0  0
    4.3750   28.9973   49.3011 H   0  0
    7.5882   30.9240   49.7881 H   0  0
    8.6483   32.9580   50.4730 H   0  0
    7.5969   34.3967   52.1804 H   0  0
    4.8745   26.8061   55.7208 H   0  0
    3.9060   25.3580   55.6784 H   0  0
    5.9847   24.6818   56.7040 H   0  0
    6.9580   25.4895   55.4865 H   0  0
    6.0536   24.0456   55.0570 H   0  0
  1  2  1  0
  1  4  1  0
  1  7  1  0
  1 25  1  0
  2  5  1  0
  2 11  2  0
  3  5  1  0
  3  8  1  0
  3 10  1  0
  3 14  1  0
  4  6  1  0
  4  8  1  0
  4 26  1  0
  5 27  1  0
  5 28  1  0
  6  9  2  0
  6 29  1  0
  7 13  2  0
  7 18  1  0
  8 30  1  0
  8 31  1  0
  9 15  1  0
  9 16  1  0
 10 12  2  0
 10 20  1  0
 12 17  1  0
 12 32  1  0
 14 33  1  0
 17 19  1  0
 17 22  2  0
 18 23  1  0
 20 21  2  0
 20 34  1  0
 21 22  1  0
 21 35  1  0
 22 36  1  0
 23 24  1  0
 23 37  1  0
 23 38  1  0
 24 39  1  0
 24 40  1  0
 24 41  1  0
M  END
> <activity>
0

$$$$
ligand_434
  SciTegic10272118463D

 39 39  0  0  1  0            999 V2000
    6.1291   24.5452   59.4710 C   0  0
    7.2150   25.1201   60.1327 C   0  0
    6.0819   24.5584   58.0777 C   0  0
    7.1119   25.1592   57.3447 C   0  0
    8.2396   25.7254   59.4088 C   0  0
    6.2876   26.1415   55.0874 N   0  3  2  0  0  0
    7.1238   25.0569   55.8251 C   0  0
    4.7928   27.0730   52.1976 N   0  3
    4.7142   23.7311   60.4556 Br  0  0
    8.1824   25.7576   58.0175 C   0  0
    7.2783   25.0994   61.4831 F   0  0
    5.1572   25.4737   54.2499 C   0  0
    4.2131   26.4473   53.4982 C   0  0
    7.1381   27.1463   54.2715 C   0  0
    5.4494   26.0879   51.2032 C   0  0
    3.7119   27.9100   51.4738 C   0  0
    8.2689   27.7829   55.0809 C   0  0
    5.2445   24.0990   57.5729 H   0  0
    9.0817   26.1612   59.9286 H   0  0
    5.8373   26.6739   55.8211 H   0  0
    6.7207   24.0891   55.5312 H   0  0
    8.1377   25.0802   55.4253 H   0  0
    5.5125   27.7269   52.4772 H   0  0
    9.0041   26.2029   57.4773 H   0  0
    4.5714   24.9576   55.0111 H   0  0
    5.6095   24.7182   53.6068 H   0  0
    3.9061   27.2812   54.1315 H   0  0
    3.3227   25.9089   53.1654 H   0  0
    7.5072   26.6112   53.3966 H   0  0
    6.4466   27.9326   53.9746 H   0  0
    6.2943   25.5994   51.6875 H   0  0
    5.8011   26.6680   50.3478 H   0  0
    4.7059   25.3578   50.8919 H   0  0
    3.3093   28.6330   52.1865 H   0  0
    2.9329   27.2309   51.1206 H   0  0
    4.1853   28.4256   50.6361 H   0  0
    8.7134   28.5570   54.4616 H   0  0
    9.0608   27.0849   55.3472 H   0  0
    7.9086   28.2678   55.9873 H   0  0
  1  2  2  0
  1  3  1  0
  1  9  1  0
  2  5  1  0
  2 11  1  0
  3  4  2  0
  3 18  1  0
  4  7  1  0
  4 10  1  0
  5 10  2  0
  5 19  1  0
  6  7  1  0
  6 12  1  0
  6 14  1  0
  6 20  1  0
  7 21  1  0
  7 22  1  0
  8 13  1  0
  8 15  1  0
  8 16  1  0
  8 23  1  0
 10 24  1  0
 12 13  1  0
 12 25  1  0
 12 26  1  0
 13 27  1  0
 13 28  1  0
 14 17  1  0
 14 29  1  0
 14 30  1  0
 15 31  1  0
 15 32  1  0
 15 33  1  0
 16 34  1  0
 16 35  1  0
 16 36  1  0
 17 37  1  0
 17 38  1  0
 17 39  1  0
M  CHG  2   6   1   8   1
M  END
> <activity>
0

$$$$
ligand_435
  SciTegic10272118463D

 38 39  0  0  1  0            999 V2000
    5.5028   31.5387   53.8700 C   0  0
    5.9058   30.3974   53.1095 C   0  0
    5.9744   32.9450   51.9393 N   0  0
    6.3056   30.5402   51.7720 C   0  0
    5.5150   32.8017   53.2072 C   0  0
    6.4027   31.8467   51.2716 C   0  0
    6.8326   25.9984   52.8898 C   0  0
    5.1077   31.5091   55.2306 C   0  0
    5.5655   26.1723   53.7401 C   0  0
    6.2475   28.9301   54.0715 S   0  0
    5.1054   33.9628   53.9028 C   0  0
    6.7112   26.1035   51.6499 O   0  0
    4.7146   32.6608   55.8982 C   0  0
    5.0286   27.6251   53.7358 C   0  0
    7.9060   25.7576   53.4878 O   0  5
    4.7067   33.8756   55.2312 C   0  0
    4.1674   32.5659   57.7197 Br  0  0
    6.7098   29.3369   50.9182 C   0  0
    7.1541   32.1678   49.9930 C   0  0
    5.5428   28.6680   50.1659 C   0  0
    4.8681   29.5206   49.0876 C   0  0
    5.0548   30.5636   55.7335 H   0  0
    4.8059   25.5091   53.3258 H   0  0
    5.7270   25.8257   54.7615 H   0  0
    5.1227   34.9204   53.4034 H   0  0
    4.4183   27.8264   52.8607 H   0  0
    4.3195   27.7102   54.5595 H   0  0
    4.3911   34.7589   55.7526 H   0  0
    7.4997   29.6038   50.2209 H   0  0
    7.1780   28.5944   51.5568 H   0  0
    7.2767   33.2450   49.8877 H   0  0
    6.6683   31.7575   49.1111 H   0  0
    8.1627   31.7631   50.0410 H   0  0
    5.9238   27.7572   49.7085 H   0  0
    4.7794   28.3425   50.8653 H   0  0
    4.0320   28.9821   48.6404 H   0  0
    5.5642   29.7577   48.2871 H   0  0
    4.4759   30.4513   49.4977 H   0  0
  1  2  1  0
  1  5  2  0
  1  8  1  0
  2  4  2  0
  2 10  1  0
  3  5  1  0
  3  6  2  0
  4  6  1  0
  4 18  1  0
  5 11  1  0
  6 19  1  0
  7  9  1  0
  7 12  2  0
  7 15  1  0
  8 13  2  0
  8 22  1  0
  9 14  1  0
  9 23  1  0
  9 24  1  0
 10 14  1  0
 11 16  2  0
 11 25  1  0
 13 16  1  0
 13 17  1  0
 14 26  1  0
 14 27  1  0
 16 28  1  0
 18 20  1  0
 18 29  1  0
 18 30  1  0
 19 31  1  0
 19 32  1  0
 19 33  1  0
 20 21  1  0
 20 34  1  0
 20 35  1  0
 21 36  1  0
 21 37  1  0
 21 38  1  0
M  CHG  1  15  -1
M  END
> <activity>
0

$$$$
ligand_436
  SciTegic10272118463D

 47 49  0  0  1  0            999 V2000
    5.4068   30.0406   52.3325 C   0  0  1  0  0  0
    3.6173   29.2253   51.1003 C   0  0
    5.1151   28.6370   52.7141 N   0  0
    4.2610   30.3627   51.4146 C   0  0
    4.1583   28.1332   51.8844 C   0  0
   -0.9580   32.3096   50.8225 N   0  3
    5.5060   30.9906   53.5753 C   0  0
    2.6009   28.9938   50.1923 N   0  0
    0.0862   31.6805   49.9791 C   0  0
    5.7495   27.8230   53.7067 C   0  0
    3.7927   26.9584   51.8352 O   0  0
    0.8049   30.5750   50.4466 C   0  0
   -1.3291   31.7140   51.8315 O   0  5
   -1.4264   33.3883   50.4690 O   0  0
    1.7844   29.9884   49.6522 C   0  0
    3.9995   32.1579   50.5877 Br  0  0
    5.8246   30.5729   54.6880 O   0  0
    6.7074   30.1812   51.5017 C   0  0
    5.2673   32.3019   53.3091 O   0  0
    0.3579   32.1623   48.6925 C   0  0
    1.3200   31.5614   47.8884 C   0  0
    2.0215   30.4611   48.3647 C   0  0
    7.1348   27.8281   53.8888 C   0  0
    4.9827   26.9878   54.5322 C   0  0
    5.5038   33.3142   54.2849 C   0  0
    4.2690   33.7159   55.0869 C   0  0
    7.7316   27.0045   54.8379 C   0  0
    5.5784   26.1578   55.4720 C   0  0
    6.9575   26.1575   55.6186 C   0  0
    2.3061   28.0408   50.0164 H   0  0
    0.6333   30.1835   51.4403 H   0  0
    7.6071   30.1585   52.1082 H   0  0
    6.7461   31.1301   50.9631 H   0  0
    6.7965   29.3894   50.7561 H   0  0
   -0.1819   33.0145   48.3040 H   0  0
    1.5277   31.9530   46.9032 H   0  0
    2.7913   30.0114   47.7538 H   0  0
    7.7728   28.4544   53.2946 H   0  0
    3.9071   26.9713   54.4409 H   0  0
    6.2859   32.9993   54.9790 H   0  0
    5.8900   34.1913   53.7648 H   0  0
    4.5279   34.4539   55.8447 H   0  0
    3.8363   32.8536   55.5949 H   0  0
    3.5075   34.1576   54.4427 H   0  0
    8.8016   27.0235   54.9772 H   0  0
    4.9651   25.5172   56.0899 H   0  0
    7.4232   25.5188   56.3555 H   0  0
  1  3  1  0
  1  4  1  0
  1  7  1  0
  1 18  1  0
  2  4  2  0
  2  5  1  0
  2  8  1  0
  3  5  1  0
  3 10  1  0
  4 16  1  0
  5 11  2  0
  6  9  1  0
  6 13  1  0
  6 14  2  0
  7 17  2  0
  7 19  1  0
  8 15  1  0
  8 30  1  0
  9 12  2  0
  9 20  1  0
 10 23  2  0
 10 24  1  0
 12 15  1  0
 12 31  1  0
 15 22  2  0
 18 32  1  0
 18 33  1  0
 18 34  1  0
 19 25  1  0
 20 21  2  0
 20 35  1  0
 21 22  1  0
 21 36  1  0
 22 37  1  0
 23 27  1  0
 23 38  1  0
 24 28  2  0
 24 39  1  0
 25 26  1  0
 25 40  1  0
 25 41  1  0
 26 42  1  0
 26 43  1  0
 26 44  1  0
 27 29  2  0
 27 45  1  0
 28 29  1  0
 28 46  1  0
 29 47  1  0
M  CHG  2   6   1  13  -1
M  END
> <activity>
0

$$$$
ligand_437
  SciTegic10272118463D

 23 24  0  0  1  0            999 V2000
    6.5303   26.3281   54.6223 C   0  0
    5.5922   26.5332   53.4310 C   0  0
    7.7783   26.8478   54.4823 N   0  0
    6.1333   25.7018   55.8105 C   0  0
    8.6577   26.7659   55.4882 N   0  0
    7.0443   25.5912   56.8768 C   0  0
    4.9873   28.4288   53.4030 Br  0  0
    6.5273   26.1537   51.7059 Br  0  0
    3.9797   25.3581   53.4884 Br  0  0
    6.6856   24.9381   58.1853 C   0  0
    8.3062   26.1588   56.6483 C   0  0
    5.4422   24.3223   58.3786 C   0  0
    7.5678   24.9354   59.2762 C   0  0
    7.2239   24.3511   60.4894 C   0  0
    5.0881   23.7554   59.5936 C   0  0
    5.9818   23.7601   60.6483 C   0  0
    5.1256   25.3336   55.8986 H   0  0
    9.0890   26.1571   57.3871 H   0  0
    4.7006   24.2840   57.5980 H   0  0
    8.5429   25.3910   59.2197 H   0  0
    7.9253   24.3720   61.3123 H   0  0
    4.1140   23.3036   59.7166 H   0  0
    5.7012   23.3115   61.5870 H   0  0
  1  2  1  0
  1  3  2  0
  1  4  1  0
  2  7  1  0
  2  8  1  0
  2  9  1  0
  3  5  1  0
  4  6  2  0
  4 17  1  0
  5 11  2  0
  6 10  1  0
  6 11  1  0
 10 12  2  0
 10 13  1  0
 11 18  1  0
 12 15  1  0
 12 19  1  0
 13 14  2  0
 13 20  1  0
 14 16  1  0
 14 21  1  0
 15 16  2  0
 15 22  1  0
 16 23  1  0
M  END
> <activity>
0

$$$$
ligand_438
  SciTegic10272118463D

 33 35  0  0  1  0            999 V2000
    4.2640   29.3807   51.7762 N   0  0
    3.9021   30.3947   50.9427 C   0  0
    5.4511   29.4801   52.4276 C   0  0
    6.3068   30.5266   52.2890 N   0  0
    4.7368   31.5053   50.7614 C   0  0
    2.6846   30.2507   50.2804 N   0  0
    5.9429   31.5306   51.4588 C   0  0
    5.8401   28.3682   53.3624 C   0  0
    0.7413   29.5782   48.2888 O   0  0
    7.1551   28.2485   53.8337 C   0  0
    4.9000   27.4188   53.8009 C   0  0
    7.0034   32.8791   51.2642 Cl  0  0
    6.5712   26.3167   55.1324 C   0  0
    5.2582   26.4023   54.6842 C   0  0
    7.5251   27.2318   54.7073 C   0  0
    7.0712   24.9585   56.3676 Br  0  0
    1.7563   29.1215   50.4602 C   0  0
    2.0055   31.2944   49.4961 C   0  0
    1.3396   28.5576   49.0871 C   0  0
    1.5595   30.7345   48.1282 C   0  0
    4.4978   32.3217   50.1024 H   0  0
    7.9058   28.9568   53.5226 H   0  0
    3.8735   27.4754   53.4716 H   0  0
    4.5179   25.6917   55.0234 H   0  0
    8.5425   27.1641   55.0668 H   0  0
    0.8804   29.4428   51.0221 H   0  0
    2.2003   28.3120   51.0393 H   0  0
    1.1425   31.6640   50.0535 H   0  0
    2.6349   32.1620   49.3135 H   0  0
    0.6217   27.7472   49.2206 H   0  0
    2.1979   28.1177   48.5720 H   0  0
    0.9904   31.4923   47.5887 H   0  0
    2.4226   30.5043   47.4983 H   0  0
  1  2  2  0
  1  3  1  0
  2  5  1  0
  2  6  1  0
  3  4  2  0
  3  8  1  0
  4  7  1  0
  5  7  2  0
  5 21  1  0
  6 17  1  0
  6 18  1  0
  7 12  1  0
  8 10  2  0
  8 11  1  0
  9 19  1  0
  9 20  1  0
 10 15  1  0
 10 22  1  0
 11 14  2  0
 11 23  1  0
 13 14  1  0
 13 15  2  0
 13 16  1  0
 14 24  1  0
 15 25  1  0
 17 19  1  0
 17 26  1  0
 17 27  1  0
 18 20  1  0
 18 28  1  0
 18 29  1  0
 19 30  1  0
 19 31  1  0
 20 32  1  0
 20 33  1  0
M  END
> <activity>
0

$$$$
ligand_439
  SciTegic10272118463D

 50 52  0  0  1  0            999 V2000
    6.8360   26.2035   53.3970 S   0  0
    5.5964   27.4696   53.2948 N   0  0
    5.1971   28.0540   51.9886 C   0  0  2  0  0  0
    5.5103   29.5448   51.8637 C   0  0
    2.0685   29.0825   50.5112 C   0  0
    3.6893   27.7255   51.8358 C   0  0
    5.2575   28.2542   54.4973 C   0  0
    3.0423   28.1573   50.5912 N   0  0
    7.1526   25.7589   52.0369 O   0  0
    7.9115   26.6778   54.2757 O   0  0
    5.9536   24.7860   54.2859 C   0  0
    5.6856   30.3398   53.0100 C   0  0
    1.7282   29.7579   51.4799 O   0  0
    5.6931   29.7317   54.4154 C   0  0
    1.3039   29.2413   49.1752 C   0  0
    5.5063   25.2154   56.1790 Br  0  0
    5.6275   30.1369   50.6095 C   0  0
    5.9064   31.7080   52.8530 C   0  0
    0.5882   30.6184   49.0715 C   0  0
    2.1820   29.0049   47.9255 C   0  0
    5.8709   31.4946   50.4714 C   0  0
    5.9930   32.2884   51.5983 C   0  0
    1.5605   31.7846   48.8240 C   0  0
    3.1455   30.1580   47.6299 C   0  0
    2.4159   31.5249   47.5743 C   0  0
    5.7350   27.5206   51.2063 H   0  0
    3.1643   28.1586   52.6880 H   0  0
    3.5353   26.6488   51.9138 H   0  0
    4.1839   28.1583   54.6586 H   0  0
    5.7313   27.7743   55.3476 H   0  0
    3.2035   27.5726   49.7812 H   0  0
    5.0408   24.5472   53.7414 H   0  0
    6.6115   23.9194   54.2830 H   0  0
    6.7107   29.7999   54.7985 H   0  0
    5.0713   30.3327   55.0803 H   0  0
    0.5552   28.4516   49.2468 H   0  0
    5.5266   29.5220   49.7288 H   0  0
    6.0318   32.3301   53.7274 H   0  0
   -0.0938   30.5788   48.2232 H   0  0
   -0.0313   30.8184   49.9479 H   0  0
    1.5060   28.9579   47.0880 H   0  0
    2.7049   28.0460   47.9492 H   0  0
    5.9610   31.9277   49.4899 H   0  0
    6.1760   33.3493   51.5024 H   0  0
    2.2083   31.9250   49.6906 H   0  0
    1.0040   32.7155   48.7049 H   0  0
    3.9061   30.1596   48.4036 H   0  0
    3.6657   29.9784   46.6885 H   0  0
    1.7868   31.5563   46.6875 H   0  0
    3.1052   32.3534   47.4502 H   0  0
  1  2  1  0
  1  9  2  0
  1 10  2  0
  1 11  1  0
  2  3  1  0
  2  7  1  0
  3  4  1  0
  3  6  1  0
  3 26  1  0
  4 12  2  0
  4 17  1  0
  5  8  1  0
  5 13  2  0
  5 15  1  0
  6  8  1  0
  6 27  1  0
  6 28  1  0
  7 14  1  0
  7 29  1  0
  7 30  1  0
  8 31  1  0
 11 16  1  0
 11 32  1  0
 11 33  1  0
 12 14  1  0
 12 18  1  0
 14 34  1  0
 14 35  1  0
 15 19  1  0
 15 20  1  0
 15 36  1  0
 17 21  2  0
 17 37  1  0
 18 22  2  0
 18 38  1  0
 19 23  1  0
 19 39  1  0
 19 40  1  0
 20 24  1  0
 20 41  1  0
 20 42  1  0
 21 22  1  0
 21 43  1  0
 22 44  1  0
 23 25  1  0
 23 45  1  0
 23 46  1  0
 24 25  1  0
 24 47  1  0
 24 48  1  0
 25 49  1  0
 25 50  1  0
M  END
> <activity>
0

$$$$
ligand_440
  SciTegic10272118463D

 21 22  0  0  1  0            999 V2000
    5.2659   26.5579   52.2046 N   0  0
    6.3421   26.5631   51.3853 C   0  0
    6.9836   26.0705   53.6366 C   0  0
    7.5497   26.2363   52.3016 C   0  0
    5.6137   26.2330   53.5178 C   0  0
    3.7214   28.4179   51.7471 C   0  0
    4.7774   26.0675   54.6200 C   0  0
    3.5565   29.6282   51.7289 C   0  0
    7.5590   25.7956   54.8764 C   0  0
    6.4016   26.7885   50.1753 O   0  0
    8.7052   26.1581   51.8895 O   0  0
    3.9427   26.9585   51.7188 C   0  0
    6.7252   25.6467   55.9844 C   0  0
    5.3417   25.7595   55.8561 C   0  0
    7.4852   25.3059   57.6952 Br  0  0
    3.7074   26.1558   54.5333 H   0  0
    3.4164   30.6876   51.7159 H   0  0
    8.6258   25.7066   55.0176 H   0  0
    3.1508   26.4772   52.2887 H   0  0
    3.8382   26.6376   50.6873 H   0  0
    4.7069   25.6214   56.7150 H   0  0
  1  2  1  0
  1  5  1  0
  1 12  1  0
  2  4  1  0
  2 10  2  0
  3  4  1  0
  3  5  2  0
  3  9  1  0
  4 11  2  0
  5  7  1  0
  6  8  3  0
  6 12  1  0
  7 14  2  0
  7 16  1  0
  8 17  1  0
  9 13  2  0
  9 18  1  0
 12 19  1  0
 12 20  1  0
 13 14  1  0
 13 15  1  0
 14 21  1  0
M  END
> <activity>
0

$$$$
ligand_441
  SciTegic10272118463D

 37 38  0  0  1  0            999 V2000
    4.3380   28.5319   50.5899 C   0  0
    5.8572   27.4235   52.2705 C   0  0
    5.7573   28.5419   51.2182 C   0  0  2  0  0  0
    6.0136   29.9342   51.7913 C   0  0
    4.7521   26.7915   52.7120 C   0  0
    3.3129   27.8620   51.1881 C   0  0
    5.1103   30.5342   53.1463 S   0  0
    3.5061   27.0875   52.2879 O   0  0
    6.8175   30.9628   51.3157 C   0  0
    6.6542   32.1828   51.9782 C   0  0
    5.7413   32.1465   53.0247 C   0  0
    4.1890   29.3906   49.3949 C   0  0
    7.1372   26.9875   52.7216 C   0  0
    8.1481   26.5582   53.0862 N   0  0
    4.6681   25.7759   53.6260 N   0  0
    5.1726   29.7577   48.7495 O   0  0
    7.5896   33.7580   51.4891 Br  0  0
    2.9271   29.7816   49.1075 O   0  0
    1.8451   27.7579   50.7891 C   0  0
    5.2818   33.2606   53.9515 C   0  0
    2.6623   30.6186   47.9912 C   0  0
    5.3077   32.8735   55.4391 C   0  0
    6.4923   28.3089   50.4441 H   0  0
    7.4741   30.8518   50.4659 H   0  0
    3.7813   25.5230   54.0358 H   0  0
    5.4997   25.3352   53.9914 H   0  0
    1.2876   28.5977   51.2022 H   0  0
    1.3949   26.8407   51.1681 H   0  0
    1.7134   27.7471   49.7083 H   0  0
    5.8905   34.1550   53.8107 H   0  0
    4.2688   33.5615   53.6864 H   0  0
    1.5864   30.7470   47.8734 H   0  0
    3.0546   30.1882   47.0684 H   0  0
    3.1056   31.6039   48.1362 H   0  0
    5.0255   33.7202   56.0655 H   0  0
    6.3013   32.5516   55.7486 H   0  0
    4.6123   32.0609   55.6548 H   0  0
  1  3  1  0
  1  6  2  0
  1 12  1  0
  2  3  1  0
  2  5  2  0
  2 13  1  0
  3  4  1  0
  3 23  1  0
  4  7  1  0
  4  9  2  0
  5  8  1  0
  5 15  1  0
  6  8  1  0
  6 19  1  0
  7 11  1  0
  9 10  1  0
  9 24  1  0
 10 11  2  0
 10 17  1  0
 11 20  1  0
 12 16  2  0
 12 18  1  0
 13 14  3  0
 15 25  1  0
 15 26  1  0
 18 21  1  0
 19 27  1  0
 19 28  1  0
 19 29  1  0
 20 22  1  0
 20 30  1  0
 20 31  1  0
 21 32  1  0
 21 33  1  0
 21 34  1  0
 22 35  1  0
 22 36  1  0
 22 37  1  0
M  END
> <activity>
0

$$$$
ligand_442
  SciTegic10272118463D

 34 36  0  0  1  0            999 V2000
    5.8186   27.7283   52.4394 C   0  0
    5.9273   28.7159   53.3679 N   0  0
    5.4211   27.9078   51.1547 N   0  0
    6.3911   25.5983   56.3844 C   0  0
    7.9040   25.1881   58.2705 C   0  0
    6.8442   24.5803   58.9333 C   0  0
    5.6132   24.4716   58.3577 C   0  0
    7.6695   25.6973   56.9813 C   0  0
    5.3546   24.9707   57.0886 C   0  0
    6.3895   25.7145   53.9812 N   0  0
    6.8021   24.0497   60.1845 O   0  0
    4.7548   23.8773   59.2256 O   0  0
    6.1991   26.4082   52.7445 N   0  0
    5.5660   29.9639   52.9818 C   0  0
    5.0564   29.1688   50.8030 C   0  0
    5.4402   23.8245   60.4474 C   0  0
    5.1149   30.2436   51.6924 C   0  0
    6.0820   26.2276   55.1046 C   0  0
    9.1054   26.5593   56.0691 Br  0  0
    4.5754   29.3539   49.3788 C   0  0
    5.6784   31.0502   54.0332 C   0  0
    8.8763   25.2824   58.7324 H   0  0
    4.3547   24.9587   56.6838 H   0  0
    6.3279   25.8163   51.9390 H   0  0
    5.0505   24.5912   61.1224 H   0  0
    5.2855   22.8612   60.9338 H   0  0
    4.8248   31.2412   51.3998 H   0  0
    5.5675   27.1764   55.2099 H   0  0
    4.0256   30.2882   49.2652 H   0  0
    3.9059   28.5437   49.0888 H   0  0
    5.4220   29.3681   48.6927 H   0  0
    6.1085   31.9572   53.6064 H   0  0
    6.3070   30.7377   54.8692 H   0  0
    4.6952   31.2925   54.4319 H   0  0
  1  2  2  0
  1  3  1  0
  1 13  1  0
  2 14  1  0
  3 15  2  0
  4  8  2  0
  4  9  1  0
  4 18  1  0
  5  6  2  0
  5  8  1  0
  5 22  1  0
  6  7  1  0
  6 11  1  0
  7  9  2  0
  7 12  1  0
  8 19  1  0
  9 23  1  0
 10 13  1  0
 10 18  2  0
 11 16  1  0
 12 16  1  0
 13 24  1  0
 14 17  2  0
 14 21  1  0
 15 17  1  0
 15 20  1  0
 16 25  1  0
 16 26  1  0
 17 27  1  0
 18 28  1  0
 20 29  1  0
 20 30  1  0
 20 31  1  0
 21 32  1  0
 21 33  1  0
 21 34  1  0
M  END
> <activity>
0

$$$$
ligand_443
  SciTegic10272118463D

 29 30  0  0  1  0            999 V2000
    6.8524   27.2865   51.9474 C   0  0  1  0  0  0
    5.5158   28.0552   51.9666 C   0  0
    6.8099   28.8111   52.0234 C   0  0
    6.4930   25.1165   57.4816 C   0  0
    7.3301   26.5271   53.2253 C   0  0
    7.9020   25.3580   58.4940 S   0  0
    7.1285   24.5933   59.8483 C   0  0
    7.3209   26.4125   55.6400 N   0  0
    6.3979   25.6374   56.0998 C   0  0
    5.5072   24.4404   58.2147 C   0  0
    7.0903   27.0511   54.4516 N   0  0
    5.8590   24.1575   59.5336 C   0  0
    4.4564   28.1860   50.2874 Br  0  0
    4.3364   28.1532   53.5641 Br  0  0
    7.9059   25.4473   53.0909 O   0  0
    7.2717   26.6231   50.6107 C   0  0
    7.9094   24.4586   61.3679 Cl  0  0
    5.1550   25.1755   55.3221 C   0  0
    7.0748   29.3240   52.9485 H   0  0
    7.1057   29.3895   51.1476 H   0  0
    4.5312   24.1768   57.8427 H   0  0
    6.6680   27.9633   54.5413 H   0  0
    5.2045   23.6634   60.2374 H   0  0
    7.1783   27.3044   49.7647 H   0  0
    6.6430   25.7576   50.4024 H   0  0
    8.3057   26.2783   50.6257 H   0  0
    5.0082   25.6547   54.3609 H   0  0
    4.2436   25.3592   55.8876 H   0  0
    5.2297   24.1184   55.0890 H   0  0
  1  2  1  0
  1  3  1  0
  1  5  1  0
  1 16  1  0
  2  3  1  0
  2 13  1  0
  2 14  1  0
  3 19  1  0
  3 20  1  0
  4  6  1  0
  4  9  1  0
  4 10  2  0
  5 11  1  0
  5 15  2  0
  6  7  1  0
  7 12  2  0
  7 17  1  0
  8  9  2  0
  8 11  1  0
  9 18  1  0
 10 12  1  0
 10 21  1  0
 11 22  1  0
 12 23  1  0
 16 24  1  0
 16 25  1  0
 16 26  1  0
 18 27  1  0
 18 28  1  0
 18 29  1  0
M  END
> <activity>
0

$$$$
ligand_444
  SciTegic10272118463D

 33 36  0  0  1  0            999 V2000
    6.2990   25.9100   55.9621 C   0  0
    5.3271   24.5580   57.7224 S   0  0
    5.1060   25.3580   56.2614 N   0  0
    7.2867   25.6476   56.9362 C   0  0
    4.7922   28.9225   52.4159 C   0  0
    6.5775   26.7287   54.8361 C   0  0
    6.9241   24.9011   57.9997 N   0  0
    3.7882   28.2811   51.6695 C   0  0
    3.0578   28.9957   50.6666 C   0  0
    5.5978   27.0902   53.8880 N   0  0
    4.4879   30.9393   51.0789 C   0  0
    3.4220   30.3418   50.3606 C   0  0
    5.5748   28.3134   53.5068 C   0  0
    5.1186   30.2419   52.0969 C   0  0
    8.8748   26.8530   55.6455 C   0  0
    8.5690   26.1581   56.8060 C   0  0
    7.9192   27.1087   54.6806 C   0  0
    5.1214   32.6911   50.6880 Br  0  0
    3.5060   26.9580   51.8880 O   0  0
    1.9696   28.4241   49.9509 C   0  0
    2.7060   31.0310   49.3460 C   0  0
    1.2919   29.1285   48.9641 C   0  0
    1.6613   30.4273   48.6582 C   0  0
    6.2272   29.0351   53.9964 H   0  0
    5.9075   30.7575   52.6283 H   0  0
    9.8796   27.2128   55.4880 H   0  0
    9.3145   25.9973   57.5693 H   0  0
    8.2210   27.6714   53.8088 H   0  0
    3.0983   26.5387   51.1234 H   0  0
    1.6513   27.4158   50.1730 H   0  0
    2.9720   32.0484   49.1003 H   0  0
    0.4718   28.6614   48.4385 H   0  0
    1.1323   30.9724   47.8900 H   0  0
  1  3  2  0
  1  4  1  0
  1  6  1  0
  2  3  1  0
  2  7  1  0
  4  7  2  0
  4 16  1  0
  5  8  2  0
  5 13  1  0
  5 14  1  0
  6 10  1  0
  6 17  2  0
  8  9  1  0
  8 19  1  0
  9 12  2  0
  9 20  1  0
 10 13  2  0
 11 12  1  0
 11 14  2  0
 11 18  1  0
 12 21  1  0
 13 24  1  0
 14 25  1  0
 15 16  2  0
 15 17  1  0
 15 26  1  0
 16 27  1  0
 17 28  1  0
 19 29  1  0
 20 22  2  0
 20 30  1  0
 21 23  2  0
 21 31  1  0
 22 23  1  0
 22 32  1  0
 23 33  1  0
M  END
> <activity>
0

$$$$
ligand_445
  SciTegic10272118463D

 32 34  0  0  1  0            999 V2000
    5.8293   28.0026   51.3756 C   0  0  2  0  0  0
    6.2204   29.4496   50.9856 C   0  0
    6.0181   27.6931   52.9064 C   0  0
    5.9448   30.5071   52.0150 C   0  0
    6.5717   27.0336   50.5469 C   0  0
    5.5108   30.1914   53.3159 C   0  0
    5.2362   28.7457   53.7390 C   0  0
    7.1478   26.2691   49.8957 N   0  0
    6.7032   29.7532   49.8889 O   0  0
    3.9069   27.8226   50.8573 Br  0  0
    5.5325   26.2565   53.2871 C   0  0
    7.5060   27.6787   53.3613 C   0  0
    6.1386   31.8520   51.6724 C   0  0
    5.3164   31.2308   54.2255 C   0  0
    6.6383   25.5789   54.1131 C   0  0
    7.5756   26.7040   54.5367 C   0  0
    5.9092   32.8685   52.5860 C   0  0
    5.5055   32.5558   53.8704 C   0  0
    5.4570   28.6255   54.7992 H   0  0
    4.1675   28.5587   53.6408 H   0  0
    5.3015   25.6435   52.4140 H   0  0
    4.6076   26.2863   53.8658 H   0  0
    7.8851   28.6652   53.6315 H   0  0
    8.1541   27.3066   52.5682 H   0  0
    6.4710   32.1302   50.6816 H   0  0
    4.9850   31.0041   55.2285 H   0  0
    6.2452   25.0216   54.9638 H   0  0
    7.1803   24.8690   53.4870 H   0  0
    8.5882   26.3575   54.7445 H   0  0
    7.2060   27.1792   55.4465 H   0  0
    6.0646   33.9000   52.3026 H   0  0
    5.3365   33.3414   54.5920 H   0  0
  1  2  1  0
  1  3  1  0
  1  5  1  0
  1 10  1  0
  2  4  1  0
  2  9  2  0
  3  7  1  0
  3 11  1  0
  3 12  1  0
  4  6  2  0
  4 13  1  0
  5  8  3  0
  6  7  1  0
  6 14  1  0
  7 19  1  0
  7 20  1  0
 11 15  1  0
 11 21  1  0
 11 22  1  0
 12 16  1  0
 12 23  1  0
 12 24  1  0
 13 17  2  0
 13 25  1  0
 14 18  2  0
 14 26  1  0
 15 16  1  0
 15 27  1  0
 15 28  1  0
 16 29  1  0
 16 30  1  0
 17 18  1  0
 17 31  1  0
 18 32  1  0
M  END
> <activity>
0

$$$$
ligand_446
  SciTegic10272118463D

 36 38  0  0  1  0            999 V2000
    7.0295   27.0034   52.8377 C   0  0  2  0  0  0
    5.8159   30.7897   52.9265 C   0  0
    5.8538   26.5344   51.9576 C   0  0
    6.7270   26.3785   54.1557 C   0  0
    5.9162   29.4044   53.3822 C   0  0
    4.9259   26.0736   52.8151 N   0  0
    7.1060   28.5614   52.8628 C   0  0
    5.9057   32.6039   51.5912 N   0  0
    5.5982   32.9580   52.8374 N   0  0
    5.4225   25.9342   54.1068 C   0  0
    5.5060   31.9063   53.7058 C   0  0
    6.0157   31.2959   51.6219 C   0  0
    7.4614   26.2839   55.3367 C   0  0
    5.7926   26.5822   50.7282 O   0  0
    5.1447   28.9438   54.2186 O   0  0
    4.7866   25.4511   55.2374 C   0  0
    8.2613   26.5579   52.2944 O   0  0
    6.8429   25.7580   56.4705 C   0  0
    5.5058   25.3580   56.4295 C   0  0
    7.8130   25.6471   58.1037 Br  0  0
    5.1740   32.1192   55.1662 C   0  0
    6.3104   30.5792   50.3252 C   0  0
    4.0209   25.7502   52.5114 H   0  0
    7.3502   28.9003   51.8617 H   0  0
    7.9523   28.8473   53.4875 H   0  0
    5.4674   33.9261   53.0958 H   0  0
    8.4792   26.6397   55.3955 H   0  0
    3.7494   25.1634   55.1988 H   0  0
    8.3217   26.8877   51.3937 H   0  0
    5.0231   24.9814   57.3196 H   0  0
    5.1127   31.1793   55.7147 H   0  0
    4.2120   32.6171   55.2933 H   0  0
    5.9251   32.7317   55.6667 H   0  0
    5.9257   29.5593   50.3128 H   0  0
    7.3810   30.5410   50.1256 H   0  0
    5.8448   31.0899   49.4878 H   0  0
  1  3  1  0
  1  4  1  0
  1  7  1  0
  1 17  1  0
  2  5  1  0
  2 11  2  0
  2 12  1  0
  3  6  1  0
  3 14  2  0
  4 10  2  0
  4 13  1  0
  5  7  1  0
  5 15  2  0
  6 10  1  0
  6 23  1  0
  7 24  1  0
  7 25  1  0
  8  9  1  0
  8 12  2  0
  9 11  1  0
  9 26  1  0
 10 16  1  0
 11 21  1  0
 12 22  1  0
 13 18  2  0
 13 27  1  0
 16 19  2  0
 16 28  1  0
 17 29  1  0
 18 19  1  0
 18 20  1  0
 19 30  1  0
 21 31  1  0
 21 32  1  0
 21 33  1  0
 22 34  1  0
 22 35  1  0
 22 36  1  0
M  END
> <activity>
0

$$$$
ligand_447
  SciTegic10272118463D

 49 53  0  0  1  0            999 V2000
    3.8366   29.6824   51.0048 C   0  0
    3.2510   28.4723   51.3203 N   0  0
    5.1288   29.7228   51.5133 C   0  0
    5.3754   28.4636   52.1405 C   0  0
    4.1623   27.7201   52.0582 C   0  0
    2.6671   30.5552   48.9197 N   0  3  2  0  0  0
    3.0986   30.8643   50.3779 C   0  0  2  0  0  0
    0.5803   32.1561   48.6217 C   0  0
   -0.4951   32.5323   47.8069 C   0  0
    0.0914   32.3894   50.2868 S   0  0
    1.9853   31.7456   48.1691 C   0  0
   -1.6476   32.9590   48.4765 C   0  0
    4.0343   26.4770   52.6905 C   0  0
   -1.4786   32.9582   49.8447 C   0  0
    6.4766   27.9124   52.8190 C   0  0
    1.8565   28.0787   51.0400 C   0  0
    5.9829   30.9725   51.4670 C   0  0
    2.0560   29.1609   48.6355 C   0  0
    1.1634   28.6416   49.7703 C   0  0
   -3.2565   33.4813   47.6045 Br  0  0
    5.1459   25.9674   53.3605 C   0  0
    6.3517   26.6603   53.4217 C   0  0
    3.9463   32.1564   50.5408 C   0  0
    5.0222   32.1592   51.6427 C   0  0
    7.5205   26.0549   54.1756 C   0  0
    3.5621   30.4827   48.4573 H   0  0
    2.1913   30.9661   50.9660 H   0  0
   -0.4415   32.5333   46.7277 H   0  0
    2.0008   31.4432   47.1203 H   0  0
    2.6848   32.5759   48.2416 H   0  0
    3.1058   25.9302   52.7045 H   0  0
   -2.1933   33.2457   50.6021 H   0  0
    7.3987   28.4671   52.8994 H   0  0
    1.8189   26.9895   51.0234 H   0  0
    1.2546   28.3880   51.8880 H   0  0
    6.7066   30.9766   52.2808 H   0  0
    6.5467   31.0496   50.5371 H   0  0
    1.5057   29.2549   47.6985 H   0  0
    2.9057   28.4966   48.4597 H   0  0
    0.5243   27.8598   49.3609 H   0  0
    0.4754   29.4341   50.0599 H   0  0
    5.0585   25.0065   53.8469 H   0  0
    3.2397   32.9579   50.7083 H   0  0
    4.4498   32.3976   49.6055 H   0  0
    5.5811   33.0952   51.6195 H   0  0
    4.5464   32.1153   52.6252 H   0  0
    8.3343   26.7696   54.3016 H   0  0
    7.9028   25.1826   53.6450 H   0  0
    7.2064   25.7364   55.1708 H   0  0
  1  2  1  0
  1  3  2  0
  1  7  1  0
  2  5  1  0
  2 16  1  0
  3  4  1  0
  3 17  1  0
  4  5  2  0
  4 15  1  0
  5 13  1  0
  6  7  1  0
  6 11  1  0
  6 18  1  0
  6 26  1  0
  7 23  1  0
  7 27  1  0
  8  9  2  0
  8 10  1  0
  8 11  1  0
  9 12  1  0
  9 28  1  0
 10 14  1  0
 11 29  1  0
 11 30  1  0
 12 14  2  0
 12 20  1  0
 13 21  2  0
 13 31  1  0
 14 32  1  0
 15 22  2  0
 15 33  1  0
 16 19  1  0
 16 34  1  0
 16 35  1  0
 17 24  1  0
 17 36  1  0
 17 37  1  0
 18 19  1  0
 18 38  1  0
 18 39  1  0
 19 40  1  0
 19 41  1  0
 21 22  1  0
 21 42  1  0
 22 25  1  0
 23 24  1  0
 23 43  1  0
 23 44  1  0
 24 45  1  0
 24 46  1  0
 25 47  1  0
 25 48  1  0
 25 49  1  0
M  CHG  1   6   1
M  END
> <activity>
0

$$$$
ligand_448
  SciTegic10272118463D

 30 31  0  0  1  0            999 V2000
    7.0126   26.1437   54.6446 N   0  0
    7.9565   26.2981   55.5939 N   0  0
    5.9257   25.4368   55.1329 C   0  0
    7.2720   26.5486   53.2948 C   0  0
    6.1966   25.2643   56.4883 C   0  0
    7.4692   25.7930   56.7022 C   0  0
    6.3677   27.3659   52.6765 N   0  0
    8.3059   26.1584   52.7517 O   0  0
    5.1055   24.4422   57.8150 Br  0  0
    4.3801   28.5225   51.0760 O   0  0
    4.7602   24.9584   54.2875 C   0  0
    8.2580   25.8552   57.9930 C   0  0
    6.7059   27.8836   51.3330 C   0  0
    5.2344   28.0627   53.3230 C   0  0
    4.0350   27.9855   52.3421 C   0  0
    5.4437   27.8171   50.4625 C   0  0
    4.8233   25.2297   53.2367 H   0  0
    3.8134   25.3438   54.6642 H   0  0
    4.7061   23.8697   54.2881 H   0  0
    9.0900   26.5574   57.9454 H   0  0
    8.6780   24.8936   58.2815 H   0  0
    7.6234   26.1584   58.8237 H   0  0
    7.5060   27.3247   50.8446 H   0  0
    7.0447   28.9159   51.4298 H   0  0
    4.9578   27.6549   54.2937 H   0  0
    5.5115   29.1046   53.4886 H   0  0
    3.6803   26.9600   52.2203 H   0  0
    3.1871   28.5580   52.7063 H   0  0
    5.1453   26.7803   50.2882 H   0  0
    5.6412   28.2656   49.4890 H   0  0
  1  2  1  0
  1  3  1  0
  1  4  1  0
  2  6  2  0
  3  5  2  0
  3 11  1  0
  4  7  1  0
  4  8  2  0
  5  6  1  0
  5  9  1  0
  6 12  1  0
  7 13  1  0
  7 14  1  0
 10 15  1  0
 10 16  1  0
 11 17  1  0
 11 18  1  0
 11 19  1  0
 12 20  1  0
 12 21  1  0
 12 22  1  0
 13 16  1  0
 13 23  1  0
 13 24  1  0
 14 15  1  0
 14 25  1  0
 14 26  1  0
 15 27  1  0
 15 28  1  0
 16 29  1  0
 16 30  1  0
M  END
> <activity>
0

$$$$
ligand_449
  SciTegic10272118463D

 20 21  0  0  1  0            999 V2000
    6.3779   26.7887   53.7585 N   0  0
    7.1776   26.6474   52.6731 C   0  0
    6.3711   27.3041   51.2020 S   0  0
    5.2195   27.4771   53.6125 C   0  0
    5.0291   27.9597   52.1836 C   0  0  2  0  0  0
    6.7551   26.2689   55.0295 C   0  0
    8.3058   26.1578   52.6292 O   0  0
    4.4037   27.7240   54.4999 O   0  0
    3.2575   27.3809   51.4879 Br  0  0
    7.9673   26.6343   55.6234 C   0  0
    5.8978   25.4111   55.7284 C   0  0
    6.2320   24.9578   56.9981 C   0  0
    8.3060   26.1582   56.8841 C   0  0
    7.4381   25.3267   57.5751 C   0  0
    5.0348   29.0493   52.1536 H   0  0
    8.6470   27.3039   55.1166 H   0  0
    4.9499   25.1158   55.3003 H   0  0
    5.5508   24.3147   57.5353 H   0  0
    9.2425   26.4507   57.3366 H   0  0
    7.7011   24.9687   58.5600 H   0  0
  1  2  1  0
  1  4  1  0
  1  6  1  0
  2  3  1  0
  2  7  2  0
  3  5  1  0
  4  5  1  0
  4  8  2  0
  5  9  1  0
  5 15  1  0
  6 10  2  0
  6 11  1  0
 10 13  1  0
 10 16  1  0
 11 12  2  0
 11 17  1  0
 12 14  1  0
 12 18  1  0
 13 14  2  0
 13 19  1  0
 14 20  1  0
M  END
> <activity>
0

$$$$
ligand_450
  SciTegic10272118463D

 34 35  0  0  1  0            999 V2000
    6.6861   25.1650   57.2955 C   0  0
    6.5378   25.4280   55.8220 C   0  0
    5.4664   26.1662   55.4742 N   0  0
    5.3769   26.6937   54.1762 N   0  0
    4.2203   27.7948   51.7644 N   0  3
    7.8133   25.6242   57.9975 C   0  0
    5.6834   24.4951   58.0030 C   0  0
    7.4096   25.0471   55.0340 O   0  0
    4.6610   25.8244   53.2447 C   0  0
    4.9090   28.0801   54.1862 C   0  0
    7.9583   25.3580   59.3595 C   0  0
    4.9259   28.7228   52.7807 C   0  0
    4.8196   26.3715   51.8136 C   0  0
    5.8388   24.2246   59.3610 C   0  0
    9.0438   26.5578   57.2119 Cl  0  0
    6.9752   24.6501   60.0419 C   0  0
    4.4850   23.2636   60.2892 Br  0  0
    4.3011   28.3801   50.3381 C   0  0
    4.6272   26.2465   56.0309 H   0  0
    3.2445   27.7284   52.0236 H   0  0
    4.7840   24.1612   57.5107 H   0  0
    3.6085   25.7424   53.5225 H   0  0
    5.0761   24.8169   53.2945 H   0  0
    3.9057   28.1248   54.6068 H   0  0
    5.5413   28.6707   54.8508 H   0  0
    8.8325   25.7087   59.8887 H   0  0
    5.9486   28.8733   52.4281 H   0  0
    4.4082   29.6842   52.7687 H   0  0
    5.8697   26.4379   51.5190 H   0  0
    4.3060   25.7587   51.0796 H   0  0
    7.0877   24.4435   61.0959 H   0  0
    3.8619   29.3790   50.3674 H   0  0
    3.7171   27.7308   49.6825 H   0  0
    5.3488   28.4163   50.0353 H   0  0
  1  2  1  0
  1  6  2  0
  1  7  1  0
  2  3  1  0
  2  8  2  0
  3  4  1  0
  3 19  1  0
  4  9  1  0
  4 10  1  0
  5 12  1  0
  5 13  1  0
  5 18  1  0
  5 20  1  0
  6 11  1  0
  6 15  1  0
  7 14  2  0
  7 21  1  0
  9 13  1  0
  9 22  1  0
  9 23  1  0
 10 12  1  0
 10 24  1  0
 10 25  1  0
 11 16  2  0
 11 26  1  0
 12 27  1  0
 12 28  1  0
 13 29  1  0
 13 30  1  0
 14 16  1  0
 14 17  1  0
 16 31  1  0
 18 32  1  0
 18 33  1  0
 18 34  1  0
M  CHG  1   5   1
M  END
> <activity>
0

$$$$
ligand_451
  SciTegic10272118463D

 25 27  0  0  1  0            999 V2000
    6.1627   29.2526   52.8304 C   0  0
    6.0720   29.9595   51.6372 C   0  0
    6.6595   27.9320   52.6502 C   0  0
    5.8345   29.8580   54.0248 N   0  0
    6.7025   27.5589   51.2929 C   0  0
    6.3051   28.9188   50.2885 S   0  0
    5.7635   31.6859   51.4618 S   0  0
    5.5076   31.2168   54.2059 C   0  0
    7.0927   27.0381   53.7407 C   0  0
    5.5460   32.1522   53.1598 C   0  0
    5.1924   31.6580   55.4877 C   0  0
    8.0619   26.2700   53.5101 O   0  0
    5.3908   33.5095   53.4545 C   0  0
    4.9864   33.0015   55.7621 C   0  0
    6.4963   27.1466   54.8350 O   0  5
    7.0753   26.2387   50.6437 C   0  0
    5.1046   33.9375   54.7453 C   0  0
    4.5679   33.5435   57.5400 Br  0  0
    5.8544   29.2588   54.8421 H   0  0
    5.1014   30.9582   56.2884 H   0  0
    5.5062   34.2462   52.6751 H   0  0
    6.5357   26.0635   49.7155 H   0  0
    6.8453   25.3944   51.2916 H   0  0
    8.1395   26.1865   50.4139 H   0  0
    4.9760   34.9864   54.9525 H   0  0
  1  2  2  0
  1  3  1  0
  1  4  1  0
  2  6  1  0
  2  7  1  0
  3  5  2  0
  3  9  1  0
  4  8  1  0
  4 19  1  0
  5  6  1  0
  5 16  1  0
  7 10  1  0
  8 10  2  0
  8 11  1  0
  9 12  2  0
  9 15  1  0
 10 13  1  0
 11 14  2  0
 11 20  1  0
 13 17  2  0
 13 21  1  0
 14 17  1  0
 14 18  1  0
 16 22  1  0
 16 23  1  0
 16 24  1  0
 17 25  1  0
M  CHG  1  15  -1
M  END
> <activity>
0

$$$$
ligand_452
  SciTegic10272118463D

 24 26  0  0  1  0            999 V2000
    7.0604   25.4196   57.2688 C   0  0
    5.7812   25.1030   56.8281 N   0  0
    7.1678   24.9521   58.5281 C   0  0
    6.1278   26.8123   52.2219 C   0  0
    6.1349   26.2981   54.8192 C   0  0
    5.5920   26.8152   53.5482 C   0  0
    5.9062   24.3698   58.9403 C   0  0
    7.9070   26.1221   56.4454 N   0  0
    5.1102   24.5566   57.8830 N   0  0
    7.3732   26.3320   51.7099 N   0  3
    5.2800   25.5887   55.6113 C   0  0
    4.3864   27.3579   53.5508 N   0  0
    7.4930   26.5591   55.2999 C   0  0
    5.1291   27.3843   51.4410 C   0  0
    4.1175   27.6965   52.2928 N   0  0
    7.4506   26.1562   50.4972 O   0  5
    5.6044   23.8414   60.0072 O   0  0
    8.3023   26.1578   52.4858 O   0  0
    8.7059   25.0755   59.7511 Br  0  0
    4.1355   24.3380   57.7357 H   0  0
    4.2508   25.3580   55.3708 H   0  0
    8.1981   27.1481   54.7223 H   0  0
    5.0516   27.5884   50.3824 H   0  0
    3.2447   28.1311   52.0268 H   0  0
  1  2  1  0
  1  3  2  0
  1  8  1  0
  2  9  1  0
  2 11  1  0
  3  7  1  0
  3 19  1  0
  4  6  1  0
  4 10  1  0
  4 14  2  0
  5  6  1  0
  5 11  2  0
  5 13  1  0
  6 12  2  0
  7  9  1  0
  7 17  2  0
  8 13  2  0
  9 20  1  0
 10 16  1  0
 10 18  2  0
 11 21  1  0
 12 15  1  0
 13 22  1  0
 14 15  1  0
 14 23  1  0
 15 24  1  0
M  CHG  2  10   1  16  -1
M  END
> <activity>
0

$$$$
ligand_453
  SciTegic10272118463D

 31 33  0  0  1  0            999 V2000
    7.2377   27.0635   53.4384 S   0  0
    6.8169   26.2835   54.9253 N   0  0
    5.7535   27.7323   52.6094 C   0  0
    7.6668   26.1555   55.9968 C   0  0
    5.7300   25.5212   55.2814 C   0  0
    5.8354   24.9966   56.4800 N   0  0
    5.6136   29.0780   52.0961 C   0  0
    7.0183   25.3685   56.9367 C   0  0
    4.3565   29.4943   51.5494 C   0  0
    8.0983   28.1580   53.8885 O   0  0
    7.7794   25.9896   52.6002 O   0  0
    4.7126   26.8338   52.4025 C   0  0
    3.2973   28.5591   51.4844 C   0  0
    3.5061   27.2531   51.8807 C   0  0
    1.5668   29.0224   50.8212 Br  0  0
    6.6625   30.0286   52.0445 C   0  0
    4.2051   30.8246   51.0711 C   0  0
    7.4838   24.9311   58.3048 C   0  0
    6.4975   31.3148   51.5442 C   0  0
    5.2641   31.7194   51.0720 C   0  0
    8.6401   26.6251   55.9998 H   0  0
    4.8825   25.3888   54.6321 H   0  0
    4.8319   25.7873   52.6318 H   0  0
    2.6939   26.5580   51.7549 H   0  0
    7.6365   29.7584   52.3810 H   0  0
    3.2546   31.1495   50.6751 H   0  0
    6.8128   25.2835   59.0880 H   0  0
    8.4778   25.3135   58.5391 H   0  0
    7.5326   23.8447   58.3839 H   0  0
    7.3338   32.0003   51.5290 H   0  0
    5.1322   32.7215   50.6900 H   0  0
  1  2  1  0
  1  3  1  0
  1 10  2  0
  1 11  2  0
  2  4  1  0
  2  5  1  0
  3  7  1  0
  3 12  2  0
  4  8  2  0
  4 21  1  0
  5  6  2  0
  5 22  1  0
  6  8  1  0
  7  9  2  0
  7 16  1  0
  8 18  1  0
  9 13  1  0
  9 17  1  0
 12 14  1  0
 12 23  1  0
 13 14  2  0
 13 15  1  0
 14 24  1  0
 16 19  2  0
 16 25  1  0
 17 20  2  0
 17 26  1  0
 18 27  1  0
 18 28  1  0
 18 29  1  0
 19 20  1  0
 19 30  1  0
 20 31  1  0
M  END
> <activity>
0

$$$$
ligand_454
  SciTegic10272118463D

 32 35  0  0  1  0            999 V2000
    5.3552   27.4852   53.7645 N   0  0
    3.9806   28.2589   52.1318 C   0  0
    4.9096   29.2329   52.3895 C   0  0
    5.7686   28.7501   53.5035 C   0  0
    4.3060   27.0996   53.0076 C   0  0
    5.9103   26.6512   54.7433 C   0  0
    4.8970   30.4483   51.7013 C   0  0
    2.9216   28.4896   51.2439 C   0  0
    2.8895   29.6991   50.5342 C   0  0
    3.8837   30.6680   50.7561 C   0  0
    5.1102   26.2306   55.8152 C   0  0
    7.2130   26.1575   54.6113 C   0  0
    5.6167   25.3580   56.7722 C   0  0
    7.7181   25.3269   55.6016 C   0  0
    6.9427   24.9431   56.6917 C   0  0
    3.7380   26.0113   53.0880 O   0  0
    6.6639   29.3580   54.0873 O   0  0
    4.7786   24.9576   57.7891 O   0  0
    7.5060   24.1313   57.6499 O   0  0
    1.6188   27.3580   51.0880 Cl  0  0
    6.0949   31.6634   52.0182 Cl  0  0
    3.8381   32.1580   49.8880 Cl  0  0
    1.6093   30.0064   49.4018 Cl  0  0
    8.3060   26.5580   53.0956 Br  0  0
    6.8378   24.1667   58.9130 C   0  0
    5.3114   24.0275   58.7319 C   0  0
    4.0991   26.5873   55.8879 H   0  0
    8.7060   24.9580   55.4880 H   0  0
    7.2296   23.3734   59.5503 H   0  0
    7.0692   25.1141   59.4036 H   0  0
    4.7944   24.1534   59.6839 H   0  0
    5.0688   23.0271   58.3736 H   0  0
  1  4  1  0
  1  5  1  0
  1  6  1  0
  2  3  2  0
  2  5  1  0
  2  8  1  0
  3  4  1  0
  3  7  1  0
  4 17  2  0
  5 16  2  0
  6 11  2  0
  6 12  1  0
  7 10  2  0
  7 21  1  0
  8  9  2  0
  8 20  1  0
  9 10  1  0
  9 23  1  0
 10 22  1  0
 11 13  1  0
 11 27  1  0
 12 14  2  0
 12 24  1  0
 13 15  2  0
 13 18  1  0
 14 15  1  0
 14 28  1  0
 15 19  1  0
 18 26  1  0
 19 25  1  0
 25 26  1  0
 25 29  1  0
 25 30  1  0
 26 31  1  0
 26 32  1  0
M  END
> <activity>
0

$$$$
ligand_455
  SciTegic10272118463D

 31 32  0  0  1  0            999 V2000
    5.6370   27.7937   52.6352 C   0  0
    5.9058   29.0100   50.3626 S   0  0
    5.8926   27.5236   51.2813 C   0  0
    5.5020   29.1675   52.8889 C   0  0
    5.6297   29.9712   51.7733 C   0  0
    5.4806   26.7529   53.7199 C   0  0
    5.5486   31.4194   51.6900 C   0  0
    6.7083   26.6332   54.4359 O   0  0
    5.6793   32.0596   50.6479 O   0  0
    6.6979   26.0395   55.6829 C   0  0
    6.8238   24.9281   58.2421 C   0  0
    6.9209   24.1608   59.9815 Br  0  0
    5.5946   25.3580   56.2175 C   0  0
    7.8619   26.1571   56.4461 C   0  0
    7.9169   25.6196   57.7299 C   0  0
    5.6610   24.7963   57.4881 C   0  0
    6.1301   26.1871   50.5913 C   0  0
    7.4588   26.1487   49.8170 C   0  0
    5.3052   29.5589   53.8774 H   0  0
    4.6712   27.0673   54.3807 H   0  0
    5.1809   25.7814   53.3249 H   0  0
    5.3574   31.9120   52.6428 H   0  0
    4.6778   25.2504   55.6589 H   0  0
    8.7152   26.6871   56.0506 H   0  0
    8.8148   25.7251   58.3200 H   0  0
    4.8083   24.2681   57.8908 H   0  0
    6.1312   25.3607   51.3040 H   0  0
    5.3027   25.9636   49.9164 H   0  0
    7.5819   25.2136   49.2703 H   0  0
    8.3063   26.2399   50.4968 H   0  0
    7.5285   26.9554   49.0884 H   0  0
  1  3  2  0
  1  4  1  0
  1  6  1  0
  2  3  1  0
  2  5  1  0
  3 17  1  0
  4  5  2  0
  4 19  1  0
  5  7  1  0
  6  8  1  0
  6 20  1  0
  6 21  1  0
  7  9  2  0
  7 22  1  0
  8 10  1  0
 10 13  1  0
 10 14  2  0
 11 12  1  0
 11 15  2  0
 11 16  1  0
 13 16  2  0
 13 23  1  0
 14 15  1  0
 14 24  1  0
 15 25  1  0
 16 26  1  0
 17 18  1  0
 17 27  1  0
 17 28  1  0
 18 29  1  0
 18 30  1  0
 18 31  1  0
M  END
> <activity>
0

$$$$
ligand_456
  SciTegic10272118463D

 25 26  0  0  1  0            999 V2000
    5.5708   25.6854   55.6365 C   0  0
    5.9621   25.2197   56.8774 N   0  0
    6.1278   25.2740   54.5143 N   0  0
    4.7061   26.6750   55.4881 N   0  0
    5.1061   24.5580   57.6668 N   0  0
    7.1919   25.3893   57.4640 C   0  0
    5.6323   26.1614   53.6345 N   0  0
    7.0916   24.7522   58.6921 C   0  0
    4.7326   26.9997   54.1508 N   0  0
    5.7740   24.2754   58.7624 C   0  0
    5.9536   26.1896   52.2113 C   0  0
    7.4484   26.1629   51.8742 C   0  0
    8.4475   24.5926   60.0196 Br  0  0
    8.3059   26.1584   52.7889 O   0  0
    8.3075   26.1581   56.7994 C   0  0
    7.7096   26.1580   50.6536 O   0  5
    5.0845   23.5415   59.8881 C   0  0
    5.5372   27.0988   51.7773 H   0  0
    5.4477   25.3567   51.7326 H   0  0
    9.1697   26.2604   57.4576 H   0  0
    8.0004   27.1649   56.5172 H   0  0
    8.6525   25.6680   55.8888 H   0  0
    5.7536   23.3572   60.7285 H   0  0
    4.7051   22.5722   59.5653 H   0  0
    4.2391   24.1097   60.2778 H   0  0
  1  2  1  0
  1  3  2  0
  1  4  1  0
  2  5  1  0
  2  6  1  0
  3  7  1  0
  4  9  2  0
  5 10  2  0
  6  8  2  0
  6 15  1  0
  7  9  1  0
  7 11  1  0
  8 10  1  0
  8 13  1  0
 10 17  1  0
 11 12  1  0
 11 18  1  0
 11 19  1  0
 12 14  2  0
 12 16  1  0
 15 20  1  0
 15 21  1  0
 15 22  1  0
 17 23  1  0
 17 24  1  0
 17 25  1  0
M  CHG  1  16  -1
M  END
> <activity>
0

$$$$
ligand_457
  SciTegic10272118463D

 28 31  0  0  1  0            999 V2000
    5.9915   31.7424   52.1315 N   0  0
    5.9618   30.3671   52.2746 C   0  0
    5.5839   30.1152   53.5944 C   0  0
    5.3522   31.3610   54.2780 C   0  0
    5.6173   32.3841   53.3035 C   0  0
    6.3097   29.5073   51.2403 C   0  0
    6.6840   30.0313   50.0420 N   0  0
    6.3697   32.2747   50.9233 C   0  0
    5.5034   33.7497   53.5671 C   0  0
    6.7123   31.3840   49.9010 C   0  0
    4.9424   31.7644   55.5539 C   0  0
    5.4657   28.6376   53.9774 C   0  0
    4.8193   33.1234   55.8322 C   0  0
    5.0955   34.0861   54.8572 C   0  0
    4.2443   33.6462   57.5714 Br  0  0
    6.2626   28.0161   51.5392 C   0  0
    6.3968   27.7607   53.0751 C   0  0
    6.3946   33.3496   50.8241 H   0  0
    5.7240   34.5126   52.8342 H   0  0
    7.0310   31.7598   48.9441 H   0  0
    4.6835   31.0359   56.3011 H   0  0
    5.7177   28.4857   55.0270 H   0  0
    4.4315   28.3090   53.8660 H   0  0
    4.9900   35.1298   55.0881 H   0  0
    5.3081   27.6289   51.1814 H   0  0
    7.0456   27.4897   50.9913 H   0  0
    6.2091   26.7068   53.2836 H   0  0
    7.4311   27.9395   53.3735 H   0  0
  1  2  1  0
  1  5  1  0
  1  8  1  0
  2  3  2  0
  2  6  1  0
  3  4  1  0
  3 12  1  0
  4  5  2  0
  4 11  1  0
  5  9  1  0
  6  7  2  0
  6 16  1  0
  7 10  1  0
  8 10  2  0
  8 18  1  0
  9 14  2  0
  9 19  1  0
 10 20  1  0
 11 13  2  0
 11 21  1  0
 12 17  1  0
 12 22  1  0
 12 23  1  0
 13 14  1  0
 13 15  1  0
 14 24  1  0
 16 17  1  0
 16 25  1  0
 16 26  1  0
 17 27  1  0
 17 28  1  0
M  END
> <activity>
0

$$$$
ligand_458
  SciTegic10272118463D

 28 29  0  0  1  0            999 V2000
    5.2476   33.4416   53.8536 N   0  5
    5.1060   32.7563   54.9333 C   0  0
    5.9054   31.4077   53.0224 C   0  0
    5.6930   32.8138   52.7888 C   0  0
    5.5060   31.0834   54.6885 S   0  0
    6.3189   30.5681   52.0481 C   0  0
    6.5556   29.1118   52.1420 C   0  0
    6.3054   28.3156   51.0134 C   0  0
    6.5548   26.9383   51.0508 C   0  0
    7.0074   26.3474   52.2320 C   0  0
    4.6100   33.3576   56.3961 S   0  0
    7.0278   28.4992   53.3125 C   0  0
    7.2502   27.1259   53.3588 C   0  0
    5.9060   33.3579   51.7054 O   0  0
    6.3300   26.1802   49.9289 O   0  0
    7.9059   26.3190   54.9537 Br  0  0
    5.8525   28.8867   49.8482 O   0  0
    7.5049   25.7575   49.2547 C   0  0
    4.4351   28.9488   49.7467 C   0  0
    6.5204   30.9859   51.0700 H   0  0
    7.1645   25.2846   52.2800 H   0  0
    7.2487   29.0795   54.1939 H   0  0
    7.2033   25.3584   48.2882 H   0  0
    8.0173   24.9678   49.8045 H   0  0
    8.2047   26.5735   49.0724 H   0  0
    4.1607   29.3382   48.7664 H   0  0
    4.0087   29.6131   50.5002 H   0  0
    3.9766   27.9632   49.8528 H   0  0
  1  2  1  0
  1  4  1  0
  2  5  1  0
  2 11  2  0
  3  4  1  0
  3  5  1  0
  3  6  2  0
  4 14  2  0
  6  7  1  0
  6 20  1  0
  7  8  2  0
  7 12  1  0
  8  9  1  0
  8 17  1  0
  9 10  2  0
  9 15  1  0
 10 13  1  0
 10 21  1  0
 12 13  2  0
 12 22  1  0
 13 16  1  0
 15 18  1  0
 17 19  1  0
 18 23  1  0
 18 24  1  0
 18 25  1  0
 19 26  1  0
 19 27  1  0
 19 28  1  0
M  CHG  1   1  -1
M  END
> <activity>
0

$$$$
ligand_459
  SciTegic10272118463D

 31 33  0  0  1  0            999 V2000
    4.1564   27.7867   51.4763 C   0  0
    5.0673   28.8376   51.5005 C   0  0
    6.1970   27.9242   53.5761 C   0  0
    6.0458   29.1424   52.6314 C   0  0  2  0  0  0
    3.9119   26.5580   52.6881 S   0  0
    5.3618   26.8602   53.6620 C   0  0
    5.7104   30.4507   53.3462 C   0  0
    4.9785   29.5669   50.3913 N   0  0
    3.5097   27.9143   50.2873 N   0  0
    4.0359   29.0106   49.6678 C   0  0
    5.2693   31.7001   52.9147 C   0  0
    5.9031   30.5091   54.6885 O   0  0
    7.3567   27.8958   54.4151 C   0  0
    8.2894   27.7579   55.0873 N   0  0
    5.1902   32.5431   54.0267 C   0  0
    5.5572   31.7557   55.0996 C   0  0
    5.5171   25.8287   54.5539 N   0  0
    4.7053   34.3820   54.0799 Br  0  0
    3.5673   29.4928   48.3126 C   0  0
    2.6237   30.7005   48.4161 C   0  0
    7.0247   29.2805   52.1711 H   0  0
    2.8368   27.2571   49.9041 H   0  0
    5.0479   31.9768   51.8945 H   0  0
    5.6502   31.9537   56.1566 H   0  0
    6.3874   25.7184   55.0538 H   0  0
    4.6987   25.4247   54.9873 H   0  0
    4.4250   29.7579   47.6946 H   0  0
    3.0636   28.6892   47.7747 H   0  0
    2.3197   31.0443   47.4267 H   0  0
    3.1044   31.5385   48.9232 H   0  0
    1.7198   30.4510   48.9727 H   0  0
  1  2  2  0
  1  5  1  0
  1  9  1  0
  2  4  1  0
  2  8  1  0
  3  4  1  0
  3  6  2  0
  3 13  1  0
  4  7  1  0
  4 21  1  0
  5  6  1  0
  6 17  1  0
  7 11  2  0
  7 12  1  0
  8 10  2  0
  9 10  1  0
  9 22  1  0
 10 19  1  0
 11 15  1  0
 11 23  1  0
 12 16  1  0
 13 14  3  0
 15 16  2  0
 15 18  1  0
 16 24  1  0
 17 25  1  0
 17 26  1  0
 19 20  1  0
 19 27  1  0
 19 28  1  0
 20 29  1  0
 20 30  1  0
 20 31  1  0
M  END
> <activity>
0

$$$$
ligand_460
  SciTegic10272118463D

 37 38  0  0  1  0            999 V2000
    6.6146   27.3043   53.6530 C   0  0
    6.0636   28.5053   53.1672 C   0  0
    7.2121   26.4369   52.7279 C   0  0
    6.6466   26.9560   55.0879 C   0  0
    6.2286   25.8345   55.5557 N   0  0
    6.4107   25.4325   56.9050 C   0  0
    5.9939   28.7406   51.7853 C   0  0
    7.1713   26.6682   51.3500 C   0  0
    6.5192   27.8151   50.8861 C   0  0
    7.6028   25.5824   57.6542 C   0  0
    7.6954   25.1212   58.9802 C   0  0
    5.3881   24.6950   57.5171 C   0  0
    6.6477   24.3996   59.5389 C   0  0
    5.4991   24.1600   58.8021 C   0  0
    5.5059   29.8809   54.3698 Br  0  0
    5.2289   30.3402   51.0809 Br  0  0
    7.9059   25.3575   53.1933 O   0  0
    7.8236   25.7580   50.5390 O   0  0
    8.7058   26.1615   57.0868 O   0  0
    8.9098   25.3724   59.8525 C   0  0
    4.3745   23.3573   59.4230 C   0  0
    7.7358   25.8531   49.1269 C   0  0
    7.1340   27.7044   55.6993 H   0  0
    6.4671   28.0343   49.8317 H   0  0
    4.4547   24.5583   57.0098 H   0  0
    6.7260   24.0225   60.5496 H   0  0
    7.6151   25.1417   54.0872 H   0  0
    9.4716   26.1144   57.6667 H   0  0
    8.6061   25.6103   60.8727 H   0  0
    9.5067   26.2083   59.4925 H   0  0
    9.5285   24.4774   59.8903 H   0  0
    4.7590   22.4391   59.8680 H   0  0
    3.6204   23.0807   58.6863 H   0  0
    3.9059   23.9402   60.2159 H   0  0
    8.2917   25.0254   48.6891 H   0  0
    8.1745   26.7764   48.7507 H   0  0
    6.7065   25.7581   48.7895 H   0  0
  1  2  2  0
  1  3  1  0
  1  4  1  0
  2  7  1  0
  2 15  1  0
  3  8  2  0
  3 17  1  0
  4  5  2  0
  4 23  1  0
  5  6  1  0
  6 10  2  0
  6 12  1  0
  7  9  2  0
  7 16  1  0
  8  9  1  0
  8 18  1  0
  9 24  1  0
 10 11  1  0
 10 19  1  0
 11 13  2  0
 11 20  1  0
 12 14  2  0
 12 25  1  0
 13 14  1  0
 13 26  1  0
 14 21  1  0
 17 27  1  0
 18 22  1  0
 19 28  1  0
 20 29  1  0
 20 30  1  0
 20 31  1  0
 21 32  1  0
 21 33  1  0
 21 34  1  0
 22 35  1  0
 22 36  1  0
 22 37  1  0
M  END
> <activity>
0

$$$$
ligand_461
  SciTegic10272118463D

 35 36  0  0  1  0            999 V2000
    6.0631   28.5022   51.8679 C   0  0
    6.1379   28.2117   53.2554 C   0  0
    5.9018   29.1741   54.1886 N   0  0
    5.6952   29.8107   51.4659 C   0  0
    5.4033   30.7689   52.4530 C   0  0
    6.4554   26.9591   53.7972 N   0  0
    5.5243   30.4105   53.7940 C   0  0
    6.4221   27.4985   50.8615 C   0  0
    6.7068   26.7030   50.0712 N   0  0
    5.9076   24.7398   55.5541 O   0  0
    4.8889   32.5572   52.0142 Br  0  0
    5.6407   30.2209   49.9834 C   0  0
    7.1708   26.7549   55.0703 C   0  0
    5.9238   25.6760   53.3016 C   0  0
    5.2732   31.4160   54.9046 C   0  0
    6.9371   30.5579   49.4880 O   0  0
    5.1306   24.9036   54.3763 C   0  0
    6.3305   25.9774   56.1039 C   0  0
    7.5026   31.7558   50.0127 C   0  0
    5.2509   29.3994   49.3821 H   0  0
    4.9356   31.0325   49.8083 H   0  0
    7.4901   27.7063   55.4956 H   0  0
    8.0938   26.2081   54.8745 H   0  0
    5.2400   25.8294   52.4675 H   0  0
    6.7377   25.0621   52.9159 H   0  0
    5.2645   30.9581   55.8882 H   0  0
    4.3065   31.8994   54.7713 H   0  0
    6.0487   32.1816   54.8961 H   0  0
    4.1917   25.4116   54.6024 H   0  0
    4.8525   23.9208   53.9949 H   0  0
    5.4656   26.5575   56.4292 H   0  0
    6.9250   25.7832   56.9975 H   0  0
    8.4200   32.0105   49.4879 H   0  0
    7.7508   31.6557   51.0702 H   0  0
    6.8239   32.5968   49.8884 H   0  0
  1  2  2  0
  1  4  1  0
  1  8  1  0
  2  3  1  0
  2  6  1  0
  3  7  2  0
  4  5  2  0
  4 12  1  0
  5  7  1  0
  5 11  1  0
  6 13  1  0
  6 14  1  0
  7 15  1  0
  8  9  3  0
 10 17  1  0
 10 18  1  0
 12 16  1  0
 12 20  1  0
 12 21  1  0
 13 18  1  0
 13 22  1  0
 13 23  1  0
 14 17  1  0
 14 24  1  0
 14 25  1  0
 15 26  1  0
 15 27  1  0
 15 28  1  0
 16 19  1  0
 17 29  1  0
 17 30  1  0
 18 31  1  0
 18 32  1  0
 19 33  1  0
 19 34  1  0
 19 35  1  0
M  END
> <activity>
0

$$$$
ligand_462
  SciTegic10272118463D

 47 50  0  0  1  0            999 V2000
    4.7913   32.2573   53.3159 C   0  0
    5.3199   30.0623   53.2451 N   0  0
    5.4030   31.2291   53.9843 C   0  0
    4.2312   31.6814   52.1195 C   0  0
    4.6425   30.3268   52.0561 C   0  0
    3.4392   32.1996   51.1754 N   0  0
    4.3216   29.5313   50.9427 C   0  0
    3.4855   30.1008   49.9581 C   0  0
    3.0634   31.4282   50.1241 C   0  0
    4.7063   33.6034   53.8575 C   0  0
    5.7907   28.8197   53.7160 C   0  0
    4.6387   34.6686   54.2900 N   0  0
    3.1220   29.3549   48.7136 C   0  0
    4.9651   28.2188   50.8359 C   0  0
    3.3675   29.7579   47.5773 O   0  0
    7.1527   28.5394   53.6600 C   0  0
    4.9228   27.9600   54.3954 C   0  0
    5.9846   31.2569   55.3741 C   0  0
    6.7896   26.6356   55.0884 C   0  0
    7.6508   27.4435   54.3543 C   0  0
    5.4190   26.8610   55.0837 C   0  0
    7.5062   25.2894   56.2093 Br  0  0
    2.1390   32.1316   49.1252 C   0  0
    2.1977   28.1581   48.8763 C   0  0
    6.2387   28.1509   50.2881 C   0  0
    4.3952   27.0961   51.4180 C   0  0
    5.1250   25.9249   51.4874 C   0  0
    6.9347   26.9584   50.2878 C   0  0
    6.3870   25.8636   50.9187 C   0  0
    7.8266   29.1977   53.1334 H   0  0
    3.8698   28.1578   54.4411 H   0  0
    6.3070   32.2505   55.6816 H   0  0
    6.8299   30.5805   55.4879 H   0  0
    5.1901   30.9670   56.0590 H   0  0
    8.7061   27.2518   54.3795 H   0  0
    4.7555   26.2300   55.6577 H   0  0
    1.5408   32.9223   49.5709 H   0  0
    1.4191   31.4405   48.6876 H   0  0
    2.7259   32.5606   48.3135 H   0  0
    2.5224   27.3640   48.2062 H   0  0
    1.1751   28.4320   48.6178 H   0  0
    2.2116   27.7693   49.8935 H   0  0
    6.6933   29.0370   49.8755 H   0  0
    3.4169   27.1479   51.8727 H   0  0
    4.7095   25.0587   51.9779 H   0  0
    7.9060   26.8882   49.8245 H   0  0
    6.9523   24.9585   50.9445 H   0  0
  1  3  2  0
  1  4  1  0
  1 10  1  0
  2  3  1  0
  2  5  1  0
  2 11  1  0
  3 18  1  0
  4  5  2  0
  4  6  1  0
  5  7  1  0
  6  9  2  0
  7  8  2  0
  7 14  1  0
  8  9  1  0
  8 13  1  0
  9 23  1  0
 10 12  3  0
 11 16  2  0
 11 17  1  0
 13 15  2  0
 13 24  1  0
 14 25  2  0
 14 26  1  0
 16 20  1  0
 16 30  1  0
 17 21  2  0
 17 31  1  0
 18 32  1  0
 18 33  1  0
 18 34  1  0
 19 20  2  0
 19 21  1  0
 19 22  1  0
 20 35  1  0
 21 36  1  0
 23 37  1  0
 23 38  1  0
 23 39  1  0
 24 40  1  0
 24 41  1  0
 24 42  1  0
 25 28  1  0
 25 43  1  0
 26 27  2  0
 26 44  1  0
 27 29  1  0
 27 45  1  0
 28 29  2  0
 28 46  1  0
 29 47  1  0
M  END
> <activity>
0

$$$$
ligand_463
  SciTegic10272118463D

 37 38  0  0  1  0            999 V2000
    6.6900   27.3457   52.2330 C   0  0
    6.3549   27.6428   50.9310 N   0  0
    7.6427   26.4461   52.2553 N   0  0
    7.9057   26.1571   50.9206 N   0  0
    7.0893   26.9041   50.0949 N   0  0
    6.0722   24.9963   57.4956 C   0  0
    7.3335   25.4360   57.9452 C   0  0
    5.3200   24.1582   58.3233 C   0  0
    5.9386   28.0166   53.6661 S   0  0
    7.8281   24.9982   59.1748 C   0  0
    5.8074   23.7581   59.5618 C   0  0
    5.4037   28.6151   50.4105 C   0  0
    7.0710   24.1581   59.9849 C   0  0
    5.7757   24.9984   54.9128 N   0  3
    4.7060   22.6926   60.6892 Br  0  0
    5.3809   25.5880   56.2776 C   0  0
    8.0658   26.4146   57.3130 O   0  0
    4.5161   26.8786   53.6741 C   0  0
    4.8051   25.3583   53.7665 C   0  0
    8.5684   26.1577   56.0119 C   0  0
    4.3175   23.8636   58.0506 H   0  0
    8.7841   25.3582   59.5260 H   0  0
    4.7649   28.1578   49.6552 H   0  0
    5.9489   29.4482   49.9668 H   0  0
    4.7725   28.9965   51.2138 H   0  0
    7.4470   23.8520   60.9504 H   0  0
    6.6978   25.3312   54.6696 H   0  0
    5.8294   23.9924   54.9891 H   0  0
    4.3061   25.4297   56.3268 H   0  0
    5.5568   26.6589   56.2049 H   0  0
    3.9068   27.0822   52.7926 H   0  0
    3.9060   27.1842   54.5235 H   0  0
    5.2840   24.9634   52.8685 H   0  0
    3.9050   24.7735   53.9504 H   0  0
    9.5420   26.6360   55.9118 H   0  0
    7.9254   26.6019   55.2559 H   0  0
    8.7027   25.0977   55.7938 H   0  0
  1  2  1  0
  1  3  2  0
  1  9  1  0
  2  5  1  0
  2 12  1  0
  3  4  1  0
  4  5  2  0
  6  7  2  0
  6  8  1  0
  6 16  1  0
  7 10  1  0
  7 17  1  0
  8 11  2  0
  8 21  1  0
  9 18  1  0
 10 13  2  0
 10 22  1  0
 11 13  1  0
 11 15  1  0
 12 23  1  0
 12 24  1  0
 12 25  1  0
 13 26  1  0
 14 16  1  0
 14 19  1  0
 14 27  1  0
 14 28  1  0
 16 29  1  0
 16 30  1  0
 17 20  1  0
 18 19  1  0
 18 31  1  0
 18 32  1  0
 19 33  1  0
 19 34  1  0
 20 35  1  0
 20 36  1  0
 20 37  1  0
M  CHG  1  14   1
M  END
> <activity>
0

$$$$
ligand_464
  SciTegic10272118463D

 26 27  0  0  1  0            999 V2000
    6.0825   30.3070   51.8620 C   0  0
    6.6119   27.8413   51.4096 C   0  0
    6.3347   29.1194   51.0605 C   0  0
    5.5059   30.4005   53.1278 C   0  0
    6.4755   31.8835   51.2376 S   0  0
    6.8628   26.8937   50.3702 C   0  0
    7.1064   26.1580   49.5111 N   0  0
    7.3518   25.5906   56.7014 C   0  0
    5.4420   31.7132   53.6117 C   0  0
    5.9058   32.6375   52.6888 C   0  0
    6.7586   27.3057   52.7835 C   0  0
    7.1379   26.1871   55.3408 C   0  0
    6.7093   24.5582   56.9959 O   0  0
    7.5116   27.9785   53.7474 C   0  0
    6.1754   26.0789   53.1154 C   0  0
    7.7094   27.4230   55.0072 C   0  0
    6.3597   25.5260   54.3800 C   0  0
    4.7886   32.1793   55.3368 Br  0  0
    8.1620   26.1580   57.4685 O   0  5
    6.2908   29.3354   50.0025 H   0  0
    5.1650   29.5479   53.6974 H   0  0
    5.9596   33.7107   52.8017 H   0  0
    7.9694   28.9283   53.5144 H   0  0
    5.5844   25.5362   52.3905 H   0  0
    8.3067   27.9641   55.7285 H   0  0
    5.8994   24.5731   54.6041 H   0  0
  1  3  1  0
  1  4  2  0
  1  5  1  0
  2  3  2  0
  2  6  1  0
  2 11  1  0
  3 20  1  0
  4  9  1  0
  4 21  1  0
  5 10  1  0
  6  7  3  0
  8 12  1  0
  8 13  2  0
  8 19  1  0
  9 10  2  0
  9 18  1  0
 10 22  1  0
 11 14  1  0
 11 15  2  0
 12 16  1  0
 12 17  2  0
 14 16  2  0
 14 23  1  0
 15 17  1  0
 15 24  1  0
 16 25  1  0
 17 26  1  0
M  CHG  1  19  -1
M  END
> <activity>
0

$$$$
ligand_465
  SciTegic10272118463D

 17 18  0  0  1  0            999 V2000
    7.6022   25.9302   56.5399 O   0  0
    6.7287   25.7742   55.4919 C   0  0
    7.0048   25.3720   57.6389 C   0  0
    5.7448   24.8370   57.3034 C   0  0
    5.5568   25.1707   55.9306 C   0  0
    7.5095   25.3209   58.9464 C   0  0
    7.0985   26.2303   54.1499 C   0  0
    6.7679   24.6253   59.8979 C   0  0
    5.0102   24.1580   58.2880 C   0  0
    5.5505   24.0363   59.5682 C   0  0
    6.1674   26.6105   53.4056 O   0  0
    9.1060   26.1965   59.4632 Br  0  0
    8.3060   26.1580   53.8312 O   0  5
    4.7060   23.1291   60.7584 Cl  0  0
    4.7060   24.9580   55.3009 H   0  0
    7.1429   24.5459   60.9082 H   0  0
    4.0481   23.7246   58.0606 H   0  0
  1  2  1  0
  1  3  1  0
  2  5  2  0
  2  7  1  0
  3  4  2  0
  3  6  1  0
  4  5  1  0
  4  9  1  0
  5 15  1  0
  6  8  2  0
  6 12  1  0
  7 11  2  0
  7 13  1  0
  8 10  1  0
  8 16  1  0
  9 10  2  0
  9 17  1  0
 10 14  1  0
M  CHG  1  13  -1
M  END
> <activity>
0

$$$$
ligand_466
  SciTegic10272118463D

 43 48  0  0  1  0            999 V2000
    4.8131   30.8762   50.8225 C   0  0  2  0  0  0
    4.4988   29.4926   51.2575 N   0  0
    3.2412   28.9347   51.1574 C   0  0
    6.1007   30.8991   50.0307 C   0  0
    5.0984   31.8427   51.9122 C   0  0
    3.1940   27.6733   51.4898 N   0  0
    6.8455   31.9196   50.5008 N   0  0
    3.7829   31.3680   49.8914 N   0  0
    6.2447   32.5229   51.5855 C   0  0
    2.1358   29.8453   50.7728 C   0  0
    5.2881   28.5317   51.8723 C   0  0
    2.4533   31.0497   50.1449 C   0  0
    4.4436   27.4008   51.9704 C   0  0
    4.3641   32.2107   53.0243 C   0  0
    6.6379   33.6431   52.2879 C   0  0
    6.3086   30.1583   49.0880 O   0  0
    4.7291   33.3563   53.7441 C   0  0
    8.0755   32.3470   49.8646 C   0  0
    5.8474   34.0566   53.3613 C   0  0
    0.8149   29.5924   51.0868 C   0  0
    3.7416   34.1556   55.1699 Br  0  0
    6.6054   28.5094   52.3425 C   0  0
    1.4735   31.9518   49.7665 C   0  0
    4.9352   26.2151   52.5298 C   0  0
   -0.1375   30.5625   50.8344 C   0  0
    7.0627   27.3153   52.9022 C   0  0
    6.2504   26.1873   52.9902 C   0  0
    0.1688   31.7280   50.1522 C   0  0
    3.9720   32.2717   49.4832 H   0  0
    3.5063   31.6082   53.2179 H   0  0
    7.5320   34.1846   52.0237 H   0  0
    8.4776   31.5984   49.1905 H   0  0
    8.8306   32.5577   50.6204 H   0  0
    7.8983   33.2476   49.2834 H   0  0
    6.0618   34.9443   53.9366 H   0  0
    0.5384   28.6671   51.5709 H   0  0
    7.2411   29.3799   52.2879 H   0  0
    1.7243   32.8480   49.2190 H   0  0
    4.3067   25.3414   52.6129 H   0  0
   -1.1610   30.3879   51.1226 H   0  0
    8.0733   27.2670   53.2791 H   0  0
    6.6394   25.2792   53.4281 H   0  0
   -0.6029   32.4460   49.9154 H   0  0
  1  2  1  0
  1  4  1  0
  1  5  1  0
  1  8  1  0
  2  3  1  0
  2 11  1  0
  3  6  2  0
  3 10  1  0
  4  7  1  0
  4 16  2  0
  5  9  2  0
  5 14  1  0
  6 13  1  0
  7  9  1  0
  7 18  1  0
  8 12  1  0
  8 29  1  0
  9 15  1  0
 10 12  2  0
 10 20  1  0
 11 13  2  0
 11 22  1  0
 12 23  1  0
 13 24  1  0
 14 17  2  0
 14 30  1  0
 15 19  2  0
 15 31  1  0
 17 19  1  0
 17 21  1  0
 18 32  1  0
 18 33  1  0
 18 34  1  0
 19 35  1  0
 20 25  2  0
 20 36  1  0
 22 26  2  0
 22 37  1  0
 23 28  2  0
 23 38  1  0
 24 27  2  0
 24 39  1  0
 25 28  1  0
 25 40  1  0
 26 27  1  0
 26 41  1  0
 27 42  1  0
 28 43  1  0
M  END
> <activity>
0

$$$$
ligand_467
  SciTegic10272118463D

 46 48  0  0  1  0            999 V2000
    4.8654   28.7394   52.1883 C   0  0  2  0  0  0
    5.1579   27.9502   50.8957 C   0  0
    4.4691   30.2398   51.9082 C   0  0  2  0  0  0
    6.0022   28.4979   53.2175 C   0  0
    3.4166   30.2620   50.7889 C   0  0
    4.2890   28.1610   49.8867 O   0  0
    3.3855   29.2026   49.8677 C   0  0
    5.8315   27.6789   54.2842 N   0  0
    5.6347   31.2977   51.7262 C   0  0  2  0  0  0
    5.7075   32.3238   52.8882 C   0  0
    6.0243   27.0989   50.6846 O   0  0
    2.4643   31.2760   50.6394 C   0  0
    7.1097   28.9571   52.9729 O   0  0
    5.9052   33.5244   52.6899 O   0  0
    2.4384   29.1368   48.8480 C   0  0
    5.5078   24.9742   54.8431 O   0  0
    1.5014   31.2054   49.6307 C   0  0
    5.5232   31.7570   54.1048 O   0  0
    1.4883   30.1421   48.7340 C   0  0
    0.1706   32.5575   49.4732 Br  0  0
    4.5367   27.2383   54.8056 C   0  0
    6.9802   26.9178   54.8092 C   0  0
    5.7288   31.9675   50.3349 C   0  0
    4.3806   25.7483   54.4365 C   0  0
    6.7552   25.4582   54.3535 C   0  0
    5.4254   32.5482   55.2787 C   0  0
    3.9785   28.2331   52.5494 H   0  0
    3.8969   30.5189   52.7883 H   0  0
    6.5849   30.7804   51.7915 H   0  0
    2.4688   32.1211   51.3121 H   0  0
    2.4381   28.3027   48.1601 H   0  0
    0.7402   30.0965   47.9575 H   0  0
    4.5614   27.3478   55.8844 H   0  0
    3.7060   27.8475   54.4701 H   0  0
    6.9825   26.9577   55.8913 H   0  0
    7.9462   27.2929   54.4702 H   0  0
    6.6404   32.5595   50.2437 H   0  0
    4.8848   32.6324   50.1515 H   0  0
    5.7588   31.2185   49.5437 H   0  0
    3.5096   25.3583   54.9514 H   0  0
    4.2206   25.6210   53.3637 H   0  0
    7.5470   24.8158   54.7342 H   0  0
    6.7778   25.3794   53.2644 H   0  0
    5.3303   31.8986   56.1488 H   0  0
    4.5439   33.1899   55.2416 H   0  0
    6.3059   33.1741   55.4254 H   0  0
  1  2  1  0
  1  3  1  0
  1  4  1  0
  1 27  1  0
  2  6  1  0
  2 11  2  0
  3  5  1  0
  3  9  1  0
  3 28  1  0
  4  8  1  0
  4 13  2  0
  5  7  2  0
  5 12  1  0
  6  7  1  0
  7 15  1  0
  8 21  1  0
  8 22  1  0
  9 10  1  0
  9 23  1  0
  9 29  1  0
 10 14  2  0
 10 18  1  0
 12 17  2  0
 12 30  1  0
 15 19  2  0
 15 31  1  0
 16 24  1  0
 16 25  1  0
 17 19  1  0
 17 20  1  0
 18 26  1  0
 19 32  1  0
 21 24  1  0
 21 33  1  0
 21 34  1  0
 22 25  1  0
 22 35  1  0
 22 36  1  0
 23 37  1  0
 23 38  1  0
 23 39  1  0
 24 40  1  0
 24 41  1  0
 25 42  1  0
 25 43  1  0
 26 44  1  0
 26 45  1  0
 26 46  1  0
M  END
> <activity>
0

$$$$
ligand_468
  SciTegic10272118463D

 31 34  0  0  1  0            999 V2000
    2.6896   29.7362   49.9021 C   0  0
    1.7440   28.7484   49.8949 C   0  0
    3.7224   29.3903   50.7929 C   0  0
    3.2773   28.1427   51.3077 C   0  0
    2.0600   27.7588   50.7776 O   0  0
    4.9591   29.9135   51.2494 C   0  0
    3.9067   27.4018   52.2122 N   0  0
    1.0732   30.3122   48.4457 N   0  0
    2.2004   30.7182   48.9946 C   0  0
    5.6265   31.2165   50.8052 C   0  0
    0.7582   29.0550   49.0084 O   0  0
    5.0648   27.9244   52.7018 C   0  0
    5.6053   29.1379   52.2361 C   0  0
    5.6825   27.1523   53.8302 C   0  0
    6.3159   31.7724   51.8031 F   0  0
    6.4757   30.9403   49.8158 F   0  0
    4.7508   32.1225   50.3846 F   0  0
    2.7036   31.9304   48.6878 N   0  0
    7.0668   27.1764   54.0608 C   0  0
    4.8771   26.4089   54.7089 C   0  0
    6.7917   25.8042   56.0248 C   0  0
    5.4224   25.7467   55.8015 C   0  0
    7.6206   26.5054   55.1525 C   0  0
    7.5020   24.9932   57.5884 Br  0  0
    6.5307   29.4963   52.6640 H   0  0
    3.5266   32.2873   49.1557 H   0  0
    2.2390   32.5350   48.0285 H   0  0
    7.7200   27.7288   53.4028 H   0  0
    3.8085   26.3640   54.5671 H   0  0
    4.7794   25.2193   56.4924 H   0  0
    8.6828   26.5541   55.3443 H   0  0
  1  2  2  0
  1  3  1  0
  1  9  1  0
  2  5  1  0
  2 11  1  0
  3  4  2  0
  3  6  1  0
  4  5  1  0
  4  7  1  0
  6 10  1  0
  6 13  2  0
  7 12  2  0
  8  9  2  0
  8 11  1  0
  9 18  1  0
 10 15  1  0
 10 16  1  0
 10 17  1  0
 12 13  1  0
 12 14  1  0
 13 25  1  0
 14 19  2  0
 14 20  1  0
 18 26  1  0
 18 27  1  0
 19 23  1  0
 19 28  1  0
 20 22  2  0
 20 29  1  0
 21 22  1  0
 21 23  2  0
 21 24  1  0
 22 30  1  0
 23 31  1  0
M  END
> <activity>
0

$$$$
ligand_469
  SciTegic10272118463D

 53 54  0  0  1  0            999 V2000
    5.9764   30.0144   52.2774 C   0  0
    5.6008   32.5920   53.3336 C   0  0
    5.4898   30.1866   53.5931 C   0  0
    6.4331   31.1410   51.5628 C   0  0
    6.2607   32.4278   52.1050 C   0  0
    5.2860   31.4814   54.1107 C   0  0
    7.5726   24.7030   60.0269 C   0  0
    5.9402   28.6294   51.5938 C   0  0
    6.9855   24.5784   58.8393 N   0  0
    7.4684   25.2184   57.7364 N   0  0
    6.2017   25.9923   53.1659 C   0  0
    7.1059   27.8430   51.8670 O   0  0
    7.1081   27.0439   52.9899 C   0  0
    6.2240   25.2502   54.3455 C   0  0
    5.1058   34.3193   54.0070 Br  0  0
    8.0164   27.3367   54.0045 C   0  0
    8.7060   25.3575   60.1848 N   0  0
    7.0182   24.1572   61.0880 N   0  3
    6.8275   24.9582   56.6816 C   0  0
    7.0567   25.6113   55.3988 C   0  0
    7.9899   26.6369   55.2084 C   0  0
    5.2079   25.7793   52.2492 O   0  0
    6.8163   33.6368   51.3716 C   0  0
    4.7261   31.7519   55.5127 C   0  0
    5.1694   28.9751   54.4582 C   0  0
    7.0958   30.9749   50.1898 C   0  0
    3.9056   25.7577   52.8246 C   0  0
    5.8761   28.7394   50.5124 H   0  0
    4.9992   28.1285   51.8047 H   0  0
    6.1406   24.0335   58.7458 H   0  0
    5.5039   24.4521   54.4650 H   0  0
    8.7036   28.1613   53.8847 H   0  0
    9.2549   25.5551   59.3592 H   0  0
    9.0353   25.6674   61.0902 H   0  0
    7.5757   24.0223   61.9171 H   0  0
    6.0385   23.9068   61.0919 H   0  0
    6.0088   24.2404   56.6729 H   0  0
    8.6561   26.9348   56.0064 H   0  0
    6.4310   33.6898   50.3564 H   0  0
    7.9030   33.5819   51.3338 H   0  0
    6.5745   34.5580   51.8761 H   0  0
    3.9100   32.4728   55.4887 H   0  0
    5.5111   32.1415   56.1621 H   0  0
    4.2871   30.9083   56.0018 H   0  0
    6.0219   28.7383   55.0881 H   0  0
    4.9075   28.1092   53.8834 H   0  0
    4.3061   29.0799   55.0875 H   0  0
    6.3428   31.0401   49.4047 H   0  0
    7.6037   30.0181   50.1016 H   0  0
    7.8594   31.7263   49.9911 H   0  0
    3.1924   26.1765   52.1203 H   0  0
    3.7900   26.3399   53.7381 H   0  0
    3.6222   24.7386   53.0882 H   0  0
  1  3  1  0
  1  4  2  0
  1  8  1  0
  2  5  2  0
  2  6  1  0
  2 15  1  0
  3  6  2  0
  3 25  1  0
  4  5  1  0
  4 26  1  0
  5 23  1  0
  6 24  1  0
  7  9  1  0
  7 17  1  0
  7 18  2  0
  8 12  1  0
  8 28  1  0
  8 29  1  0
  9 10  1  0
  9 30  1  0
 10 19  2  0
 11 13  2  0
 11 14  1  0
 11 22  1  0
 12 13  1  0
 13 16  1  0
 14 20  2  0
 14 31  1  0
 16 21  2  0
 16 32  1  0
 17 33  1  0
 17 34  1  0
 18 35  1  0
 18 36  1  0
 19 20  1  0
 19 37  1  0
 20 21  1  0
 21 38  1  0
 22 27  1  0
 23 39  1  0
 23 40  1  0
 23 41  1  0
 24 42  1  0
 24 43  1  0
 24 44  1  0
 25 45  1  0
 25 46  1  0
 25 47  1  0
 26 48  1  0
 26 49  1  0
 26 50  1  0
 27 51  1  0
 27 52  1  0
 27 53  1  0
M  CHG  1  18   1
M  END
> <activity>
0

$$$$
ligand_470
  SciTegic10272118463D

 49 52  0  0  1  0            999 V2000
    3.8585   28.1408   51.1613 C   0  0
    4.7709   29.1445   51.1466 C   0  0
    4.6050   30.2116   50.1525 C   0  0
    6.0539   27.8434   52.8939 C   0  0
    2.7439   28.1580   50.3802 N   0  0
    5.9550   29.1816   52.1317 C   0  0  2  0  0  0
    3.4356   30.1794   49.4718 N   0  0
    5.1238   26.8585   52.7598 C   0  0
    4.0270   27.0314   51.9457 N   0  0
    2.4761   29.2117   49.5537 C   0  0
    7.2027   27.6945   53.7902 C   0  0
    5.8947   30.4433   53.0060 C   0  0
    5.3702   32.9114   54.2363 C   0  0
    5.1062   31.7210   54.9188 C   0  0
    5.9790   32.8580   52.9796 C   0  0
    5.3524   30.4926   54.2915 C   0  0
    6.3061   31.6278   52.4352 C   0  0
    5.1948   25.5483   53.5262 C   0  0
    5.9562   25.7388   54.8641 C   0  0
    7.3132   26.4194   54.6081 C   0  0
    1.1060   29.3570   48.6879 S   0  0
    5.4258   31.0743   49.8880 O   0  0
    8.0579   28.5571   53.8880 O   0  0
    4.3063   31.7579   56.6526 Br  0  0
    5.0755   34.1176   54.8210 O   0  0
    6.3059   34.0039   52.3082 O   0  0
    5.0661   26.5588   55.8228 C   0  0
    6.2987   24.3828   55.4558 C   0  0
    7.4693   33.9728   51.4880 C   0  0
    2.0805   27.3981   50.3242 H   0  0
    6.8557   29.2429   51.5148 H   0  0
    3.2488   30.9036   48.7962 H   0  0
    3.4170   26.2426   51.7878 H   0  0
    5.0337   29.5864   54.7734 H   0  0
    6.8701   31.5815   51.5213 H   0  0
    5.7383   24.8631   52.8845 H   0  0
    4.2050   25.1197   53.6972 H   0  0
    7.9664   25.7513   54.0494 H   0  0
    7.8182   26.6550   55.5460 H   0  0
    4.6449   33.9945   55.6696 H   0  0
    4.0750   26.1139   55.8874 H   0  0
    4.9203   27.5834   55.4933 H   0  0
    5.4820   26.5580   56.8280 H   0  0
    5.5063   24.1580   56.1605 H   0  0
    7.2178   24.3804   56.0454 H   0  0
    6.3799   23.6046   54.6885 H   0  0
    7.9061   34.9579   51.4880 H   0  0
    7.2030   33.6910   50.4689 H   0  0
    8.2554   33.3109   51.8554 H   0  0
  1  2  2  0
  1  5  1  0
  1  9  1  0
  2  3  1  0
  2  6  1  0
  3  7  1  0
  3 22  2  0
  4  6  1  0
  4  8  2  0
  4 11  1  0
  5 10  1  0
  5 30  1  0
  6 12  1  0
  6 31  1  0
  7 10  1  0
  7 32  1  0
  8  9  1  0
  8 18  1  0
  9 33  1  0
 10 21  2  0
 11 20  1  0
 11 23  2  0
 12 16  2  0
 12 17  1  0
 13 14  2  0
 13 15  1  0
 13 25  1  0
 14 16  1  0
 14 24  1  0
 15 17  2  0
 15 26  1  0
 16 34  1  0
 17 35  1  0
 18 19  1  0
 18 36  1  0
 18 37  1  0
 19 20  1  0
 19 27  1  0
 19 28  1  0
 20 38  1  0
 20 39  1  0
 25 40  1  0
 26 29  1  0
 27 41  1  0
 27 42  1  0
 27 43  1  0
 28 44  1  0
 28 45  1  0
 28 46  1  0
 29 47  1  0
 29 48  1  0
 29 49  1  0
M  END
> <activity>
0

$$$$
ligand_471
  SciTegic10272118463D

 52 55  0  0  1  0            999 V2000
    5.4284   27.6184   53.1230 N   0  0
    2.6906   29.3977   49.5044 C   0  0
    4.7626   27.3172   51.9588 C   0  0
    5.8874   28.8501   53.5278 C   0  0
    2.9412   30.7225   49.8846 C   0  0
    4.1172   28.5149   51.2872 C   0  0
    4.4138   29.8330   51.6667 C   0  0
    1.9189   29.0734   48.3029 N   0  3
    5.3036   30.0179   52.7578 C   0  0
    3.8798   30.9310   50.9459 C   0  0
    2.3967   31.8116   49.1617 N   0  0
    3.2626   28.3365   50.2036 C   0  0
    1.0513   32.1593   48.8942 C   0  0
    0.1292   32.6576   49.8421 C   0  0
   -1.1803   33.0214   49.4565 C   0  0
    0.9704   28.3103   48.4320 O   0  5
    6.7061   28.9991   54.4404 O   0  0
    4.7061   26.1791   51.4888 O   0  0
    2.3060   29.5457   47.2388 O   0  0
   -1.5342   32.9456   48.1078 C   0  0
    0.6799   32.1580   47.5572 C   0  0
    5.9253   26.4619   53.9182 C   0  0
   -0.5958   32.5580   47.1672 C   0  0
    5.6586   31.3156   53.1283 C   0  0
   -3.2939   33.3580   47.4874 Br  0  0
    4.3638   32.1911   51.3035 C   0  0
    5.1359   26.2241   55.2210 C   0  0
    0.5494   32.9386   51.2646 C   0  0
   -2.2206   33.5091   50.4705 C   0  0
    5.2165   32.3965   52.3833 C   0  0
    5.1061   24.9580   57.2781 O   0  0
    5.7583   25.0871   56.0361 C   0  0
    2.8872   31.8389   48.2797 H   0  0
    3.0600   27.3580   49.8357 H   0  0
    1.4053   31.8860   46.8036 H   0  0
    5.9277   25.5312   53.3471 H   0  0
    6.9800   26.6083   54.1616 H   0  0
   -0.8696   32.5580   46.1226 H   0  0
    6.3060   31.4967   53.9743 H   0  0
    4.0486   33.0102   50.6880 H   0  0
    5.1153   27.1350   55.8202 H   0  0
    4.0961   25.9896   54.9851 H   0  0
   -0.1670   32.4198   51.8880 H   0  0
    0.4948   34.0024   51.4943 H   0  0
    1.5564   32.5951   51.4878 H   0  0
   -1.7860   33.9969   51.3410 H   0  0
   -2.8209   32.6684   50.8185 H   0  0
   -2.8934   34.2479   50.0359 H   0  0
    5.5395   33.3955   52.6397 H   0  0
    4.1524   25.0084   57.1403 H   0  0
    5.6829   24.1580   55.4755 H   0  0
    6.8174   25.2707   56.2232 H   0  0
  1  3  1  0
  1  4  1  0
  1 22  1  0
  2  5  2  0
  2  8  1  0
  2 12  1  0
  3  6  1  0
  3 18  2  0
  4  9  1  0
  4 17  2  0
  5 10  1  0
  5 11  1  0
  6  7  1  0
  6 12  2  0
  7  9  2  0
  7 10  1  0
  8 16  1  0
  8 19  2  0
  9 24  1  0
 10 26  2  0
 11 13  1  0
 11 33  1  0
 12 34  1  0
 13 14  2  0
 13 21  1  0
 14 15  1  0
 14 28  1  0
 15 20  2  0
 15 29  1  0
 20 23  1  0
 20 25  1  0
 21 23  2  0
 21 35  1  0
 22 27  1  0
 22 36  1  0
 22 37  1  0
 23 38  1  0
 24 30  2  0
 24 39  1  0
 26 30  1  0
 26 40  1  0
 27 32  1  0
 27 41  1  0
 27 42  1  0
 28 43  1  0
 28 44  1  0
 28 45  1  0
 29 46  1  0
 29 47  1  0
 29 48  1  0
 30 49  1  0
 31 32  1  0
 31 50  1  0
 32 51  1  0
 32 52  1  0
M  CHG  2   8   1  16  -1
M  END
> <activity>
0

$$$$
ligand_472
  SciTegic10272118463D

 23 22  0  0  1  0            999 V2000
    7.4780   24.5066   58.9283 C   0  0
    6.6622   25.8685   54.6305 N   0  5
    7.5922   26.0222   55.5774 C   0  0
    6.9719   26.1456   53.3791 C   0  0
    8.1620   24.7294   60.2876 C   0  0
    7.8210   25.6450   57.9582 C   0  0
    7.1313   25.4845   56.7228 O   0  0
    8.7062   26.5582   55.5516 O   0  0
    5.7589   26.3375   52.4519 C   0  0
    6.1561   24.4123   59.0887 F   0  0
    7.9022   23.3627   58.3995 F   0  0
    8.1008   26.2274   52.8744 O   0  0
    7.8381   25.8914   60.8487 F   0  0
    7.9064   23.7599   61.1630 F   0  0
    7.1098   26.1605   49.8832 Br  0  0
    6.0130   27.1879   51.1945 C   0  0
    9.2456   24.7457   60.1658 H   0  0
    8.9025   25.6852   57.8160 H   0  0
    7.5221   26.5959   58.3831 H   0  0
    4.9409   26.7889   53.0160 H   0  0
    5.3981   25.3580   52.1502 H   0  0
    5.0768   27.4557   50.7038 H   0  0
    6.5474   28.1100   51.4266 H   0  0
  1  5  1  0
  1  6  1  0
  1 10  1  0
  1 11  1  0
  2  3  1  0
  2  4  1  0
  3  7  1  0
  3  8  2  0
  4  9  1  0
  4 12  2  0
  5 13  1  0
  5 14  1  0
  5 17  1  0
  6  7  1  0
  6 18  1  0
  6 19  1  0
  9 16  1  0
  9 20  1  0
  9 21  1  0
 15 16  1  0
 16 22  1  0
 16 23  1  0
M  CHG  1   2  -1
M  END
> <activity>
0

$$$$
ligand_473
  SciTegic10272118463D

 32 33  0  0  1  0            999 V2000
    5.1383   29.8502   50.7514 C   0  0
    6.0897   25.0148   57.0400 C   0  0
    5.9778   30.9619   50.2882 N   0  3
    5.1066   24.5578   57.8883 N   0  0
    5.9642   25.3841   55.6493 C   0  0
    5.5181   29.0658   51.8521 C   0  0
    7.2302   24.9587   57.8296 C   0  0
    5.5443   24.2644   59.1191 N   0  0
    4.6895   28.0168   52.3091 C   0  0
    3.9368   29.5882   50.0914 C   0  0
    6.8312   24.5311   59.1014 C   0  0
    4.3076   26.3300   54.0600 N   0  0
    5.4853   32.0852   50.2971 O   0  5
    7.1035   30.6960   49.8833 O   0  0
    3.5079   27.7574   51.5955 C   0  0
    4.7122   25.7618   55.2562 N   0  0
    3.1269   28.5407   50.5086 C   0  0
    6.9683   25.4123   54.9315 O   0  0
    5.0274   27.2488   53.5278 C   0  0
    6.7016   29.3615   52.4868 O   0  0
    1.4949   28.1815   49.5972 Br  0  0
    7.6621   24.3652   60.3511 C   0  0
    4.1259   24.4763   57.6527 H   0  0
    8.2335   25.2284   57.5329 H   0  0
    3.6324   30.1913   49.2477 H   0  0
    2.8539   26.9487   51.8867 H   0  0
    3.9393   25.3717   55.7728 H   0  0
    5.9613   27.5521   53.9922 H   0  0
    6.8767   28.7884   53.2357 H   0  0
    8.7191   24.5620   60.1678 H   0  0
    7.5912   23.3576   60.7562 H   0  0
    7.3436   25.0500   61.1377 H   0  0
  1  3  1  0
  1  6  2  0
  1 10  1  0
  2  4  1  0
  2  5  1  0
  2  7  2  0
  3 13  1  0
  3 14  2  0
  4  8  1  0
  4 23  1  0
  5 16  1  0
  5 18  2  0
  6  9  1  0
  6 20  1  0
  7 11  1  0
  7 24  1  0
  8 11  2  0
  9 15  2  0
  9 19  1  0
 10 17  2  0
 10 25  1  0
 11 22  1  0
 12 16  1  0
 12 19  2  0
 15 17  1  0
 15 26  1  0
 16 27  1  0
 17 21  1  0
 19 28  1  0
 20 29  1  0
 22 30  1  0
 22 31  1  0
 22 32  1  0
M  CHG  2   3   1  13  -1
M  END
> <activity>
0

$$$$
ligand_474
  SciTegic10272118463D

 24 24  0  0  1  0            999 V2000
    5.9525   24.9580   57.0145 N   0  0
    5.5219   24.4125   58.1792 C   0  0
    7.1820   25.5260   57.0134 C   0  0
    6.2989   24.4612   59.3412 C   0  0
    8.0004   25.6158   58.0842 N   0  0
    7.5507   25.0679   59.2388 C   0  0
    7.8054   26.1850   55.4978 S   0  0
    7.0956   26.1580   52.8154 C   0  0
    8.3060   26.2555   52.5953 O   0  0
    5.6632   23.7580   61.0016 Br  0  0
    4.3060   23.8189   58.2881 O   0  0
    6.5103   25.9914   54.2227 C   0  0
    6.1322   26.1576   51.8750 O   0  0
    8.4942   25.1541   60.4146 C   0  0
    6.4739   26.2168   50.4972 C   0  0
    3.7201   24.1870   57.6216 H   0  0
    5.7205   26.7239   54.3885 H   0  0
    6.0637   25.0003   54.3004 H   0  0
    8.1845   25.9523   61.0881 H   0  0
    9.5061   25.3581   60.0758 H   0  0
    8.5215   24.2173   60.9706 H   0  0
    5.5887   26.0289   49.8887 H   0  0
    7.2207   25.4635   50.2388 H   0  0
    6.8696   27.1998   50.2370 H   0  0
  1  2  2  0
  1  3  1  0
  2  4  1  0
  2 11  1  0
  3  5  2  0
  3  7  1  0
  4  6  2  0
  4 10  1  0
  5  6  1  0
  6 14  1  0
  7 12  1  0
  8  9  2  0
  8 12  1  0
  8 13  1  0
 11 16  1  0
 12 17  1  0
 12 18  1  0
 13 15  1  0
 14 19  1  0
 14 20  1  0
 14 21  1  0
 15 22  1  0
 15 23  1  0
 15 24  1  0
M  END
> <activity>
0

$$$$
ligand_475
  SciTegic10272118463D

 16 17  0  0  1  0            999 V2000
    6.9626   25.8100   55.1844 N   0  0
    5.7585   25.3580   55.6610 C   0  0
    7.8872   25.8118   56.1656 N   0  0
    5.9420   24.9860   56.9809 C   0  0
    7.1690   26.2208   53.8037 C   0  0
    7.2705   25.3580   57.2451 C   0  0
    4.8655   25.7580   53.4719 N   0  0
    6.0788   26.1691   53.0177 N   0  5
    4.6757   25.3708   54.6880 C   0  0
    8.3060   26.5580   53.4880 O   0  0
    4.7060   24.1835   58.1932 Br  0  0
    7.9995   25.2881   58.5656 C   0  0
    3.6724   25.0769   54.9679 H   0  0
    8.8973   25.9075   58.5829 H   0  0
    8.3060   24.2678   58.7949 H   0  0
    7.3681   25.6252   59.3877 H   0  0
  1  2  1  0
  1  3  1  0
  1  5  1  0
  2  4  2  0
  2  9  1  0
  3  6  2  0
  4  6  1  0
  4 11  1  0
  5  8  1  0
  5 10  2  0
  6 12  1  0
  7  8  1  0
  7  9  2  0
  9 13  1  0
 12 14  1  0
 12 15  1  0
 12 16  1  0
M  CHG  1   8  -1
M  END
> <activity>
0

$$$$
ligand_476
  SciTegic10272118463D

 42 43  0  0  1  0            999 V2000
    5.2809   28.4159   53.4056 C   0  0
    4.6120   30.3892   51.5155 C   0  0
    5.5059   29.7881   53.6833 C   0  0
    4.8504   28.0406   52.1155 C   0  0
    5.1566   30.7744   52.7449 C   0  0
    4.4686   29.0322   51.1884 C   0  0
    6.8945   25.7929   56.3894 C   0  0
    5.7615   25.0961   56.6864 N   0  0
    7.9336   25.9951   57.2401 N   0  0
    5.3463   27.3455   54.5242 C   0  0
    7.0010   26.6413   54.8295 S   0  0
    5.6972   24.5559   57.9366 C   0  0
    7.8092   25.4740   58.4893 C   0  0
    6.7069   24.7227   58.8806 C   0  0
    4.0348   31.7401   50.2884 Br  0  0
    3.8597   28.6701   49.8329 C   0  0
    5.3136   32.2695   53.0634 C   0  0
    6.0459   30.2343   55.0342 C   0  0
    4.7758   26.5571   51.7381 C   0  0
    4.4749   23.7314   58.2896 C   0  0
    8.8988   25.7933   59.4874 C   0  0
    4.6554   26.5260   54.3264 H   0  0
    4.9728   27.7590   55.4584 H   0  0
    6.6301   24.3093   59.8752 H   0  0
    3.5068   27.6447   49.7629 H   0  0
    4.5893   28.8426   49.0436 H   0  0
    2.9841   29.2832   49.6216 H   0  0
    4.4777   32.8543   52.6844 H   0  0
    6.2303   32.6557   52.6149 H   0  0
    5.3328   32.4980   54.1272 H   0  0
    6.7061   31.0961   55.0386 H   0  0
    6.6313   29.4407   55.4880 H   0  0
    5.1927   30.5580   55.6249 H   0  0
    3.7857   26.1592   51.9533 H   0  0
    5.5067   25.9572   52.2802 H   0  0
    5.0001   26.3849   50.6863 H   0  0
    3.5631   24.1569   57.8880 H   0  0
    4.3459   23.6593   59.3700 H   0  0
    4.5712   22.7216   57.8974 H   0  0
    9.4762   24.8996   59.7243 H   0  0
    8.4628   26.1639   60.4149 H   0  0
    9.5767   26.5581   59.1097 H   0  0
  1  3  2  0
  1  4  1  0
  1 10  1  0
  2  5  2  0
  2  6  1  0
  2 15  1  0
  3  5  1  0
  3 18  1  0
  4  6  2  0
  4 19  1  0
  5 17  1  0
  6 16  1  0
  7  8  2  0
  7  9  1  0
  7 11  1  0
  8 12  1  0
  9 13  2  0
 10 11  1  0
 10 22  1  0
 10 23  1  0
 12 14  2  0
 12 20  1  0
 13 14  1  0
 13 21  1  0
 14 24  1  0
 16 25  1  0
 16 26  1  0
 16 27  1  0
 17 28  1  0
 17 29  1  0
 17 30  1  0
 18 31  1  0
 18 32  1  0
 18 33  1  0
 19 34  1  0
 19 35  1  0
 19 36  1  0
 20 37  1  0
 20 38  1  0
 20 39  1  0
 21 40  1  0
 21 41  1  0
 21 42  1  0
M  END
> <activity>
0

$$$$
ligand_477
  SciTegic10272118463D

 32 35  0  0  1  0            999 V2000
    6.1473   26.2243   53.3381 N   0  3
    5.3870   27.1903   53.8906 N   0  0
    6.5338   25.3671   54.3117 N   0  0
    6.6270   26.1554   52.0477 C   0  0
    5.2481   26.9360   55.2082 N   0  0
    5.9867   25.8591   55.4050 C   0  0
    7.9057   26.1591   51.7671 N   0  5
    5.8392   26.1573   50.9947 N   0  0
    7.9430   26.1579   50.3948 N   0  0
    6.6799   26.1593   49.9110 N   0  0
    4.9844   28.3770   53.2526 C   0  0
    6.2819   25.3093   56.7604 C   0  0
    5.6734   29.5633   53.5210 C   0  0
    4.0089   28.3290   52.2521 C   0  0
    4.4675   30.6353   51.7293 C   0  0
    5.4143   30.6953   52.7517 C   0  0
    3.7542   29.4628   51.4873 C   0  0
    4.1644   32.1578   50.6296 Br  0  0
    7.5568   25.4580   57.3024 C   0  0
    5.3086   24.6591   57.5141 C   0  0
    5.5971   24.1594   58.7788 C   0  0
    7.8461   24.9771   58.5753 C   0  0
    6.8679   24.3239   59.3127 C   0  0
    6.4367   29.6001   54.2861 H   0  0
    3.4897   27.4081   52.0241 H   0  0
    5.9650   31.6078   52.9286 H   0  0
    3.0256   29.4232   50.6915 H   0  0
    8.3297   25.9628   56.7410 H   0  0
    4.3067   24.5594   57.1309 H   0  0
    4.8271   23.6643   59.3532 H   0  0
    8.8354   25.1082   58.9906 H   0  0
    7.0935   23.9501   60.3009 H   0  0
  1  2  1  0
  1  3  2  0
  1  4  1  0
  2  5  1  0
  2 11  1  0
  3  6  1  0
  4  7  1  0
  4  8  2  0
  5  6  2  0
  6 12  1  0
  7  9  1  0
  8 10  1  0
  9 10  2  0
 11 13  2  0
 11 14  1  0
 12 19  2  0
 12 20  1  0
 13 16  1  0
 13 24  1  0
 14 17  2  0
 14 25  1  0
 15 16  2  0
 15 17  1  0
 15 18  1  0
 16 26  1  0
 17 27  1  0
 19 22  1  0
 19 28  1  0
 20 21  2  0
 20 29  1  0
 21 23  1  0
 21 30  1  0
 22 23  2  0
 22 31  1  0
 23 32  1  0
M  CHG  2   1   1   7  -1
M  END
> <activity>
0

$$$$
ligand_478
  SciTegic10272118463D

 22 23  0  0  1  0            999 V2000
    6.9774   26.5557   55.2708 N   0  0
    6.2557   25.7503   56.0473 C   0  0
    5.1045   25.3584   55.5407 N   0  0
    6.2216   26.7011   54.2079 C   0  0
    6.6845   25.3396   57.4262 C   0  0
    5.0860   25.9682   54.3620 N   0  0
    6.5222   27.5261   52.9767 C   0  0
    7.2373   26.6771   51.9291 C   0  0
    8.3057   25.4608   59.2336 N   0  0
    5.8554   24.5574   58.2478 C   0  0
    6.7172   26.5974   50.7942 O   0  0
    7.9058   25.7579   57.9695 C   0  0
    6.2455   24.2482   59.5513 C   0  0
    8.3061   26.1354   52.2843 O   0  5
    5.1035   23.2377   60.6884 Br  0  0
    7.4772   24.7158   60.0061 C   0  0
    4.3397   25.8754   53.6893 H   0  0
    7.1201   28.4101   53.1967 H   0  0
    5.5997   27.9122   52.5413 H   0  0
    4.8942   24.2156   57.8914 H   0  0
    8.5896   26.3608   57.3895 H   0  0
    7.8148   24.5034   61.0105 H   0  0
  1  2  1  0
  1  4  2  0
  2  3  2  0
  2  5  1  0
  3  6  1  0
  4  6  1  0
  4  7  1  0
  5 10  2  0
  5 12  1  0
  6 17  1  0
  7  8  1  0
  7 18  1  0
  7 19  1  0
  8 11  2  0
  8 14  1  0
  9 12  2  0
  9 16  1  0
 10 13  1  0
 10 20  1  0
 12 21  1  0
 13 15  1  0
 13 16  2  0
 16 22  1  0
M  CHG  1  14  -1
M  END
> <activity>
0

$$$$
ligand_479
  SciTegic10272118463D

 20 21  0  0  1  0            999 V2000
    7.1511   25.5294   56.3108 N   0  0
    6.6278   25.1513   57.5750 C   0  0
    5.4119   24.5580   57.4883 N   0  0
    7.5053   25.5787   54.0962 N   0  0
    8.2247   26.6143   54.6745 N   0  0
    7.2780   25.3059   58.8199 C   0  0
    6.8748   24.9799   55.0727 C   0  0
    7.9792   26.5685   55.9587 C   0  0
    6.6564   24.8032   59.9686 C   0  0
    4.8424   24.0572   58.6089 C   0  0
    8.9563   26.1581   59.0622 Br  0  0
    5.4234   24.1574   59.8690 C   0  0
    4.7258   23.5868   61.0883 C   0  0
    6.1855   24.1583   54.9724 H   0  0
    8.3069   27.2840   56.6876 H   0  0
    7.1374   24.9100   60.9311 H   0  0
    3.9062   23.5471   58.4674 H   0  0
    3.9056   22.9241   60.8097 H   0  0
    4.3077   24.3916   61.6961 H   0  0
    5.4204   23.0090   61.6990 H   0  0
  1  2  1  0
  1  7  1  0
  1  8  1  0
  2  3  2  0
  2  6  1  0
  3 10  1  0
  4  5  1  0
  4  7  2  0
  5  8  2  0
  6  9  2  0
  6 11  1  0
  7 14  1  0
  8 15  1  0
  9 12  1  0
  9 16  1  0
 10 12  2  0
 10 17  1  0
 12 13  1  0
 13 18  1  0
 13 19  1  0
 13 20  1  0
M  END
> <activity>
0

$$$$
ligand_480
  SciTegic10272118463D

 41 43  0  0  1  0            999 V2000
    6.9631   26.8883   54.3552 S   0  0
    5.2319   28.4219   52.8021 C   0  0
    5.5451   27.9375   54.0879 N   0  0
    6.7454   25.9869   55.9628 C   0  0
    5.3482   29.8100   52.4663 C   0  0
    4.6812   27.5657   51.8472 C   0  0
    4.9799   30.2639   51.1524 C   0  0
    7.7908   25.8575   56.8978 C   0  0
    5.5341   25.3580   56.2954 C   0  0
    4.4687   29.3233   50.2162 C   0  0
    4.3245   28.0055   50.5908 C   0  0
    8.0649   27.8495   54.4324 O   0  0
    7.0135   25.8548   53.3178 O   0  0
    5.7897   30.6851   53.4177 N   0  0
    5.3880   24.6542   57.5005 C   0  0
    7.6390   25.1653   58.1011 C   0  0
    6.4320   24.5580   58.4101 C   0  0
    4.3060   25.7580   52.2109 Br  0  0
    3.9059   29.7580   48.4503 Br  0  0
    9.0771   26.5580   56.6691 C   0  0
    4.3642   25.3582   55.3560 C   0  0
    5.1344   31.6454   50.8602 C   0  0
    5.9060   31.9944   53.0978 C   0  0
    6.2476   23.8382   59.7336 C   0  0
    5.6148   32.5072   51.8411 C   0  0
    5.5968   28.7217   54.7224 H   0  0
    3.9060   27.3029   49.8874 H   0  0
    4.4451   24.1871   57.7479 H   0  0
    8.4577   25.1138   58.8059 H   0  0
    9.5060   26.2948   55.7066 H   0  0
    9.8012   26.5159   57.4806 H   0  0
    8.7060   27.5764   56.6281 H   0  0
    4.0407   26.3371   55.0260 H   0  0
    3.5060   24.9581   55.8484 H   0  0
    4.5894   24.6855   54.5338 H   0  0
    4.8721   32.0285   49.8874 H   0  0
    6.2653   32.6381   53.8853 H   0  0
    5.4745   23.0714   59.6688 H   0  0
    5.9531   24.5490   60.5064 H   0  0
    7.1742   23.3580   60.0498 H   0  0
    5.7518   33.5586   51.6370 H   0  0
  1  3  1  0
  1  4  1  0
  1 12  2  0
  1 13  2  0
  2  3  1  0
  2  5  1  0
  2  6  2  0
  3 26  1  0
  4  8  2  0
  4  9  1  0
  5  7  2  0
  5 14  1  0
  6 11  1  0
  6 18  1  0
  7 10  1  0
  7 22  1  0
  8 16  1  0
  8 20  1  0
  9 15  2  0
  9 21  1  0
 10 11  2  0
 10 19  1  0
 11 27  1  0
 14 23  2  0
 15 17  1  0
 15 28  1  0
 16 17  2  0
 16 29  1  0
 17 24  1  0
 20 30  1  0
 20 31  1  0
 20 32  1  0
 21 33  1  0
 21 34  1  0
 21 35  1  0
 22 25  2  0
 22 36  1  0
 23 25  1  0
 23 37  1  0
 24 38  1  0
 24 39  1  0
 24 40  1  0
 25 41  1  0
M  END
> <activity>
0

$$$$
ligand_481
  SciTegic10272118463D

 38 41  0  0  1  0            999 V2000
    5.1919   29.8866   53.3029 N   0  3
    4.5434   30.4325   52.1978 C   0  0
    4.1303   29.3735   51.4101 N   0  0
    5.2359   28.4967   53.1536 C   0  0
    4.5818   28.1964   51.9702 C   0  0
    4.2527   32.1573   51.8878 S   0  0
    5.8158   27.5507   54.1446 C   0  0
    3.3303   29.4697   50.2691 C   0  0
    5.6018   30.6457   54.4867 C   0  0
    4.9649   26.6338   54.7665 C   0  0
    7.1825   27.5558   54.4429 C   0  0
    6.8317   25.7557   56.0074 C   0  0
    7.6921   26.6533   55.3761 C   0  0
    5.4729   25.7421   55.7050 C   0  0
    7.5058   24.5450   57.3093 Br  0  0
    5.9057   32.1078   54.1168 C   0  0
    4.7538   32.8663   53.4878 C   0  0
    1.9483   29.5488   50.4152 C   0  0
    3.9120   29.5216   49.0082 C   0  0
    1.1486   29.6931   49.2908 C   0  0
    3.1059   29.6780   47.8887 C   0  0
    1.7291   29.7638   48.0312 C   0  0
    4.3545   27.2489   51.5012 H   0  0
    4.7982   30.5937   55.2216 H   0  0
    6.4789   30.1825   54.9385 H   0  0
    3.9085   26.6203   54.5388 H   0  0
    7.8457   28.2574   53.9574 H   0  0
    8.7441   26.6581   55.6229 H   0  0
    4.8127   25.0478   56.2046 H   0  0
    6.7140   32.1574   53.3968 H   0  0
    6.2458   32.6306   55.0119 H   0  0
    5.0496   33.8998   53.3013 H   0  0
    3.9061   32.9044   54.1645 H   0  0
    1.4930   29.5066   51.3950 H   0  0
    4.9840   29.4591   48.8905 H   0  0
    0.0775   29.7550   49.3993 H   0  0
    3.5516   29.7459   46.9065 H   0  0
    1.1087   29.8860   47.1587 H   0  0
  1  2  2  0
  1  4  1  0
  1  9  1  0
  2  3  1  0
  2  6  1  0
  3  5  1  0
  3  8  1  0
  4  5  2  0
  4  7  1  0
  5 23  1  0
  6 17  1  0
  7 10  2  0
  7 11  1  0
  8 18  2  0
  8 19  1  0
  9 16  1  0
  9 24  1  0
  9 25  1  0
 10 14  1  0
 10 26  1  0
 11 13  2  0
 11 27  1  0
 12 13  1  0
 12 14  2  0
 12 15  1  0
 13 28  1  0
 14 29  1  0
 16 17  1  0
 16 30  1  0
 16 31  1  0
 17 32  1  0
 17 33  1  0
 18 20  1  0
 18 34  1  0
 19 21  2  0
 19 35  1  0
 20 22  2  0
 20 36  1  0
 21 22  1  0
 21 37  1  0
 22 38  1  0
M  CHG  1   1   1
M  END
> <activity>
0

$$$$
ligand_482
  SciTegic10272118463D

 30 31  0  0  1  0            999 V2000
    6.5572   25.2185   55.8870 N   0  0
    7.3303   25.6457   56.8517 C   0  0
    6.9996   25.8739   54.8255 C   0  0
    7.9869   26.7251   55.0398 N   0  0
    8.2107   26.5564   56.3376 N   0  0
    7.2630   25.1981   58.2676 C   0  0
    6.3352   25.6323   53.4798 C   0  0
    7.0736   26.1578   52.2425 C   0  0
    8.3059   25.0681   60.4465 N   0  0
    6.1890   24.4302   58.7416 C   0  0
    8.3056   26.1587   52.1978 O   0  0
    8.2817   25.5156   59.1711 C   0  0
    6.2996   26.5689   51.2253 N   0  0
    6.1838   23.9861   60.0645 C   0  0
    4.7260   22.9588   60.7320 Br  0  0
    7.2756   24.3052   60.8735 C   0  0
    6.8073   27.1368   49.9834 C   0  0
    7.4683   26.0965   49.0564 C   0  0
    8.9227   27.0583   56.8470 H   0  0
    5.3280   26.0502   53.5043 H   0  0
    6.2024   24.5604   53.3378 H   0  0
    5.3647   24.1763   58.0890 H   0  0
    9.1059   26.1510   58.8902 H   0  0
    5.2976   26.4725   51.3085 H   0  0
    7.3702   23.9567   61.8879 H   0  0
    7.5059   27.9294   50.2252 H   0  0
    5.9881   27.6554   49.4882 H   0  0
    7.9081   26.5580   48.1747 H   0  0
    6.7516   25.3594   48.6986 H   0  0
    8.2743   25.5601   49.5589 H   0  0
  1  2  2  0
  1  3  1  0
  2  5  1  0
  2  6  1  0
  3  4  2  0
  3  7  1  0
  4  5  1  0
  5 19  1  0
  6 10  2  0
  6 12  1  0
  7  8  1  0
  7 20  1  0
  7 21  1  0
  8 11  2  0
  8 13  1  0
  9 12  2  0
  9 16  1  0
 10 14  1  0
 10 22  1  0
 12 23  1  0
 13 17  1  0
 13 24  1  0
 14 15  1  0
 14 16  2  0
 16 25  1  0
 17 18  1  0
 17 26  1  0
 17 27  1  0
 18 28  1  0
 18 29  1  0
 18 30  1  0
M  END
> <activity>
0

$$$$
ligand_483
  SciTegic10272118463D

 43 45  0  0  1  0            999 V2000
    5.8350   30.5462   51.9910 C   0  0
    5.8819   29.1925   51.3983 C   0  0
    5.2529   28.2856   52.4501 C   0  0  2  0  0  0
    5.5062   30.4809   53.3455 C   0  0
    5.4887   29.0250   53.7879 C   0  0  2  0  0  0
    5.7047   26.8185   52.3485 C   0  0
    6.0978   31.7726   51.3898 C   0  0
    5.3326   31.6834   54.0520 C   0  0
    6.7881   28.5800   54.5023 C   0  0
    6.9539   26.4433   53.1558 C   0  0
    6.9407   27.0443   54.5787 C   0  0  2  0  0  0
    6.3051   28.8711   50.2878 O   0  0
    6.4537   25.3390   56.4977 C   0  0
    5.1058   25.9996   51.6602 O   0  0
    7.6239   24.9582   56.4530 O   0  0
    5.9058   32.9580   52.1033 C   0  0
    5.5059   32.9111   53.4256 C   0  0
    5.8799   26.3372   55.4832 C   0  0
    4.8720   31.7581   55.8882 Br  0  0
    5.5434   24.9579   57.4141 O   0  0
    6.5356   31.7591   50.0902 O   0  0
    5.9441   24.1990   58.5453 C   0  0
    7.6808   32.5581   49.8594 C   0  0
    4.7072   23.7109   59.3046 C   0  0
    4.1829   28.2753   52.2380 H   0  0
    4.6493   28.8386   54.4567 H   0  0
    6.8694   29.0357   55.4858 H   0  0
    7.6451   28.9580   53.9453 H   0  0
    7.8169   26.8023   52.5959 H   0  0
    7.0256   25.3562   53.1942 H   0  0
    7.9414   26.8932   54.9875 H   0  0
    6.0578   33.9239   51.6486 H   0  0
    5.3640   33.8290   53.9766 H   0  0
    5.1637   25.7864   54.8727 H   0  0
    5.2770   27.0638   56.0229 H   0  0
    6.5629   24.8170   59.2000 H   0  0
    6.5613   23.3580   58.2309 H   0  0
    8.5489   32.1832   50.3988 H   0  0
    7.5060   33.5883   50.1520 H   0  0
    7.9065   32.5826   48.8015 H   0  0
    4.9895   23.0992   60.1617 H   0  0
    4.0595   23.1116   58.6642 H   0  0
    4.1260   24.5547   59.6803 H   0  0
  1  2  1  0
  1  4  2  0
  1  7  1  0
  2  3  1  0
  2 12  2  0
  3  5  1  0
  3  6  1  0
  3 25  1  0
  4  5  1  0
  4  8  1  0
  5  9  1  0
  5 26  1  0
  6 10  1  0
  6 14  2  0
  7 16  2  0
  7 21  1  0
  8 17  2  0
  8 19  1  0
  9 11  1  0
  9 27  1  0
  9 28  1  0
 10 11  1  0
 10 29  1  0
 10 30  1  0
 11 18  1  0
 11 31  1  0
 13 15  2  0
 13 18  1  0
 13 20  1  0
 16 17  1  0
 16 32  1  0
 17 33  1  0
 18 34  1  0
 18 35  1  0
 20 22  1  0
 21 23  1  0
 22 24  1  0
 22 36  1  0
 22 37  1  0
 23 38  1  0
 23 39  1  0
 23 40  1  0
 24 41  1  0
 24 42  1  0
 24 43  1  0
M  END
> <activity>
0

$$$$
ligand_484
  SciTegic10272118463D

 37 40  0  0  1  0            999 V2000
    5.8636   29.0874   52.4771 N   0  0
    4.6166   26.7622   52.9925 C   0  0
    5.8444   27.0498   53.5634 C   0  0
    4.0438   27.6875   52.1215 N   0  0
    4.6509   28.8813   51.8315 C   0  0
    6.5739   28.2649   53.3372 C   0  0
    4.1524   25.5902   53.3967 N   0  0
    6.1502   25.9717   54.3591 N   0  0
    6.4125   30.4537   52.2957 C   0  0
    5.0898   25.1197   54.1897 C   0  0
    5.8872   31.5080   53.2948 C   0  0
    5.2336   33.8168   53.7706 C   0  0
    5.7582   32.8509   52.8887 C   0  0
    4.8735   33.4168   55.0468 C   0  0
    5.0119   32.1284   55.4533 C   0  0
    5.5060   31.1471   54.6033 C   0  0
    4.1355   29.7094   51.0678 O   0  0
    7.6441   28.5579   53.8682 O   0  0
    4.3317   34.1580   56.0458 O   0  0
    4.5660   32.0031   56.7301 O   0  0
    4.1530   33.2819   57.1263 C   0  0
    2.7410   27.4463   51.4880 C   0  0
    6.3059   33.3592   51.1365 Br  0  0
    7.3221   25.7622   55.1958 C   0  0
    6.1952   30.7878   51.2814 H   0  0
    7.5035   30.4414   52.2879 H   0  0
    5.1059   24.1608   54.6865 H   0  0
    5.1065   34.8482   53.4877 H   0  0
    5.5805   30.1332   54.9511 H   0  0
    3.1061   33.2616   57.4318 H   0  0
    4.7396   33.6141   57.9856 H   0  0
    2.2519   26.5575   51.8715 H   0  0
    2.8574   27.3580   50.4090 H   0  0
    2.0649   28.2823   51.6706 H   0  0
    7.2928   24.7690   55.6437 H   0  0
    7.3348   26.5108   55.9892 H   0  0
    8.2240   25.8635   54.5925 H   0  0
  1  5  1  0
  1  6  1  0
  1  9  1  0
  2  3  2  0
  2  4  1  0
  2  7  1  0
  3  6  1  0
  3  8  1  0
  4  5  1  0
  4 22  1  0
  5 17  2  0
  6 18  2  0
  7 10  2  0
  8 10  1  0
  8 24  1  0
  9 11  1  0
  9 25  1  0
  9 26  1  0
 10 27  1  0
 11 13  2  0
 11 16  1  0
 12 13  1  0
 12 14  2  0
 12 28  1  0
 13 23  1  0
 14 15  1  0
 14 19  1  0
 15 16  2  0
 15 20  1  0
 16 29  1  0
 19 21  1  0
 20 21  1  0
 21 30  1  0
 21 31  1  0
 22 32  1  0
 22 33  1  0
 22 34  1  0
 24 35  1  0
 24 36  1  0
 24 37  1  0
M  END
> <activity>
0

$$$$
ligand_485
  SciTegic10272118463D

 28 30  0  0  1  0            999 V2000
    6.0149   28.1058   51.4105 C   0  0
    6.0501   28.6905   52.6698 N   0  0
    6.8781   27.0737   51.4219 C   0  0
    5.2062   28.6421   50.4426 N   0  0
    7.4668   26.9595   52.7428 C   0  0
    6.9132   27.9618   53.4334 N   0  0
    5.3588   29.8731   52.9673 C   0  0
    4.4735   29.6956   50.6516 C   0  0
    4.5854   30.3482   51.9596 C   0  0
    8.3013   26.1581   53.1551 O   0  0
    7.3605   25.8831   49.9228 Br  0  0
    3.5609   30.2555   49.6231 C   0  0
    5.5060   30.4690   54.3531 C   0  0
    3.0747   31.5683   49.6891 C   0  0
    3.1702   29.4674   48.5338 C   0  0
    2.3668   29.9847   47.5264 C   0  0
    2.2652   32.0764   48.6791 C   0  0
    1.9302   31.2990   47.5915 C   0  0
    7.0382   28.2630   54.3869 H   0  0
    4.0057   31.2268   52.1921 H   0  0
    5.0179   31.4444   54.4166 H   0  0
    6.5474   30.5876   54.6464 H   0  0
    5.0300   29.8151   55.0808 H   0  0
    3.3402   32.2383   50.4917 H   0  0
    3.5055   28.4440   48.4417 H   0  0
    2.1026   29.3603   46.6881 H   0  0
    1.9062   33.0918   48.6896 H   0  0
    1.3605   31.7583   46.8003 H   0  0
  1  2  1  0
  1  3  2  0
  1  4  1  0
  2  6  1  0
  2  7  1  0
  3  5  1  0
  3 11  1  0
  4  8  2  0
  5  6  1  0
  5 10  2  0
  6 19  1  0
  7  9  2  0
  7 13  1  0
  8  9  1  0
  8 12  1  0
  9 20  1  0
 12 14  2  0
 12 15  1  0
 13 21  1  0
 13 22  1  0
 13 23  1  0
 14 17  1  0
 14 24  1  0
 15 16  2  0
 15 25  1  0
 16 18  1  0
 16 26  1  0
 17 18  2  0
 17 27  1  0
 18 28  1  0
M  END
> <activity>
0

$$$$
ligand_486
  SciTegic10272118463D

 44 46  0  0  1  0            999 V2000
    5.5260   28.5963   54.0172 N   0  0
    6.4784   27.5268   54.2758 C   0  0  2  0  0  0
    4.8658   28.4452   52.8008 C   0  0
    6.4726   26.6978   52.9328 C   0  0
    5.3976   27.3375   52.1423 C   0  0
    5.5915   29.9301   54.6741 N   0  0
    5.7232   31.1373   53.9611 C   0  0
    5.3441   32.3890   54.5022 C   0  0
    3.9058   29.2295   52.1705 C   0  0
    4.9194   26.9809   50.8835 C   0  0
    6.3008   31.1131   52.6876 C   0  0
    5.4752   33.5457   53.7210 C   0  0
    4.7659   32.5575   55.8735 C   0  0
    7.2408   25.7587   52.7208 O   0  0
    6.0848   26.6883   55.3406 O   0  0
    4.0033   31.7580   56.4040 O   0  0
    3.4232   28.8799   50.9237 C   0  0
    6.4704   32.2665   51.9542 C   0  0
    7.8803   27.9987   54.6506 C   0  0
    3.9230   27.7580   50.2881 C   0  0
    6.0424   33.4794   52.4556 C   0  0
    2.0700   29.9305   50.0958 Br  0  0
    7.3539   32.1580   50.2871 Br  0  0
    5.3309   33.6952   56.7271 C   0  0
    4.7591   26.1591   55.3992 C   0  0
    5.4604   33.3398   58.2220 C   0  0
    4.8971   29.9621   55.4124 H   0  0
    3.5145   30.1140   52.6460 H   0  0
    5.2896   26.1058   50.3680 H   0  0
    6.6784   30.1936   52.2689 H   0  0
    5.1748   34.5168   54.0914 H   0  0
    8.5276   27.1438   54.8492 H   0  0
    7.8453   28.6151   55.5484 H   0  0
    8.3056   28.5838   53.8384 H   0  0
    3.5060   27.4790   49.3311 H   0  0
    6.1931   34.3828   51.8880 H   0  0
    4.6686   34.5505   56.5979 H   0  0
    6.3059   33.9811   56.3337 H   0  0
    4.6945   25.4919   56.2580 H   0  0
    4.4944   25.5815   54.5137 H   0  0
    4.0214   26.9490   55.5386 H   0  0
    5.9061   34.1582   58.7812 H   0  0
    6.0920   32.4624   58.3694 H   0  0
    4.4899   33.1290   58.6730 H   0  0
  1  2  1  0
  1  3  1  0
  1  6  1  0
  2  4  1  0
  2 15  1  0
  2 19  1  0
  3  5  2  0
  3  9  1  0
  4  5  1  0
  4 14  2  0
  5 10  1  0
  6  7  1  0
  6 27  1  0
  7  8  2  0
  7 11  1  0
  8 12  1  0
  8 13  1  0
  9 17  2  0
  9 28  1  0
 10 20  2  0
 10 29  1  0
 11 18  2  0
 11 30  1  0
 12 21  2  0
 12 31  1  0
 13 16  2  0
 13 24  1  0
 15 25  1  0
 17 20  1  0
 17 22  1  0
 18 21  1  0
 18 23  1  0
 19 32  1  0
 19 33  1  0
 19 34  1  0
 20 35  1  0
 21 36  1  0
 24 26  1  0
 24 37  1  0
 24 38  1  0
 25 39  1  0
 25 40  1  0
 25 41  1  0
 26 42  1  0
 26 43  1  0
 26 44  1  0
M  END
> <activity>
0

$$$$
ligand_487
  SciTegic10272118463D

 34 35  0  0  1  0            999 V2000
    6.2578   27.5291   53.6533 C   0  0
    5.7939   25.6683   54.9647 N   0  0
    5.4245   26.4542   53.9769 C   0  0
    6.9387   26.0506   55.4697 C   0  0
    6.0851   28.5972   52.6513 C   0  0
    7.6743   27.3986   54.6724 S   0  0
    6.3533   28.3549   51.3405 C   0  0
    6.7531   27.0747   50.8671 C   0  0
    6.3069   29.3408   50.3097 C   0  0
    7.1063   26.0639   50.4377 N   0  0
    6.3057   30.1581   49.4883 N   0  0
    5.6249   29.9366   53.1649 C   0  0
    4.2646   26.1566   53.3438 N   0  0
    7.5658   25.5130   56.5613 N   0  0
    5.9059   30.3294   54.4808 C   0  0
    4.9506   30.8646   52.3533 C   0  0
    5.0541   32.5298   54.0802 C   0  0
    4.7058   32.1584   52.7894 C   0  0
    5.6259   31.6086   54.9429 C   0  0
    4.7031   34.2887   54.6872 Br  0  0
    7.1228   24.3716   57.3455 C   0  0
    7.5968   24.4512   58.8015 C   0  0
    4.1460   26.3321   52.3570 H   0  0
    3.6413   25.4864   53.7663 H   0  0
    8.5188   25.7750   56.7632 H   0  0
    6.4047   29.6636   55.1611 H   0  0
    4.5966   30.6147   51.3670 H   0  0
    4.2110   32.8596   52.1377 H   0  0
    5.8755   31.8928   55.9537 H   0  0
    6.0340   24.3096   57.3209 H   0  0
    7.5057   23.4624   56.8810 H   0  0
    7.2701   23.5762   59.3652 H   0  0
    7.1951   25.3326   59.3036 H   0  0
    8.6845   24.4969   58.8716 H   0  0
  1  3  2  0
  1  5  1  0
  1  6  1  0
  2  3  1  0
  2  4  2  0
  3 13  1  0
  4  6  1  0
  4 14  1  0
  5  7  2  0
  5 12  1  0
  7  8  1  0
  7  9  1  0
  8 10  3  0
  9 11  3  0
 12 15  2  0
 12 16  1  0
 13 23  1  0
 13 24  1  0
 14 21  1  0
 14 25  1  0
 15 19  1  0
 15 26  1  0
 16 18  2  0
 16 27  1  0
 17 18  1  0
 17 19  2  0
 17 20  1  0
 18 28  1  0
 19 29  1  0
 21 22  1  0
 21 30  1  0
 21 31  1  0
 22 32  1  0
 22 33  1  0
 22 34  1  0
M  END
> <activity>
0

$$$$
ligand_488
  SciTegic10272118463D

 40 42  0  0  1  0            999 V2000
    2.0555   30.7750   50.3412 C   0  0
    3.2358   30.4553   50.9097 N   0  0
    3.3323   29.1149   51.2944 C   0  0
    1.6410   32.0001   49.9792 N   0  3
    1.1065   29.3656   49.9974 S   0  0
    2.3084   28.3875   50.8191 C   0  0
    4.4702   28.5060   52.0471 C   0  0
    6.5597   27.2966   53.5182 C   0  0
    0.3292   32.3656   49.5717 C   0  0
   -0.0944   32.1579   48.2581 C   0  0
    4.8839   27.1968   51.7639 C   0  0
    5.1062   29.1875   53.0924 C   0  0
    6.1404   28.5987   53.8144 C   0  0
    5.9178   26.6000   52.4829 C   0  0
    5.5833   30.9273   50.2556 C   0  0
    4.3413   31.4498   50.9618 C   0  0
    6.8197   30.9866   50.7725 C   0  0
   -1.3792   32.5581   47.8884 C   0  0
   -2.0593   32.1590   46.1564 Br  0  0
   -1.7778   33.4221   50.1073 C   0  0
   -0.5119   32.9936   50.4888 C   0  0
   -2.2055   33.2014   48.8039 C   0  0
    7.6614   26.6705   54.2869 N   0  3
    8.3055   27.3616   55.0733 O   0  5
    7.9060   25.4841   54.0901 O   0  0
    2.2350   32.7572   50.2884 H   0  0
    2.1535   27.3240   50.9302 H   0  0
    0.5516   31.6732   47.5412 H   0  0
    4.4094   26.6299   50.9757 H   0  0
    4.7731   30.1678   53.3916 H   0  0
    6.5995   29.1580   54.6172 H   0  0
    6.2073   25.5889   52.2338 H   0  0
    5.4407   30.4985   49.2738 H   0  0
    4.0300   32.3543   50.4446 H   0  0
    4.5311   31.7265   51.9969 H   0  0
    7.0057   31.4136   51.7471 H   0  0
    7.6719   30.6111   50.2280 H   0  0
   -2.4262   33.9164   50.8171 H   0  0
   -0.1811   33.1662   51.5042 H   0  0
   -3.1963   33.5143   48.5034 H   0  0
  1  2  1  0
  1  4  2  0
  1  5  1  0
  2  3  1  0
  2 16  1  0
  3  6  2  0
  3  7  1  0
  4  9  1  0
  4 26  1  0
  5  6  1  0
  6 27  1  0
  7 11  1  0
  7 12  2  0
  8 13  2  0
  8 14  1  0
  8 23  1  0
  9 10  2  0
  9 21  1  0
 10 18  1  0
 10 28  1  0
 11 14  2  0
 11 29  1  0
 12 13  1  0
 12 30  1  0
 13 31  1  0
 14 32  1  0
 15 16  1  0
 15 17  2  0
 15 33  1  0
 16 34  1  0
 16 35  1  0
 17 36  1  0
 17 37  1  0
 18 19  1  0
 18 22  2  0
 20 21  2  0
 20 22  1  0
 20 38  1  0
 21 39  1  0
 22 40  1  0
 23 24  1  0
 23 25  2  0
M  CHG  3   4   1  23   1  24  -1
M  END
> <activity>
0

$$$$
ligand_489
  SciTegic10272118463D

 51 54  0  0  1  0            999 V2000
    5.6742   30.7323   53.5616 C   0  0
    5.6251   29.2393   53.5882 C   0  0
    4.8963   28.7552   52.5571 N   0  0
    4.2023   27.5912   52.3994 C   0  0
    6.2562   31.4042   52.4745 C   0  0
    2.6789   28.7226   50.6575 C   0  0
    6.1784   32.7977   52.4305 C   0  0
    3.1832   27.6000   51.4880 N   0  0
    5.1073   31.4593   54.6163 C   0  0
    4.4971   26.1569   53.1977 S   0  0
    3.0436   30.0211   48.4557 C   0  0  2  0  0  0
    1.8996   31.1851   50.3926 C   0  0  1  0  0  0
    0.7052   29.3745   49.1227 C   0  0  1  0  0  0
    6.1605   28.6007   54.4942 O   0  0
    5.5064   33.5029   53.4317 C   0  0
    1.2599   28.3303   50.1283 C   0  0
    2.4917   30.1158   51.3538 C   0  0
    3.5673   28.9158   49.4035 C   0  0
    5.0121   32.8452   54.5508 C   0  0
    2.8561   31.3748   49.1897 C   0  0
    0.5227   30.7193   49.8637 C   0  0
    1.6813   29.5354   47.9430 C   0  0
    7.1060   33.7578   51.0878 Br  0  0
    7.0589   30.6891   51.6075 O   0  0
    4.3886   33.6357   55.6864 C   0  0
    6.7405   30.6960   50.2286 C   0  0
    4.6590   29.4591   51.8771 H   0  0
    2.7734   26.7015   51.2684 H   0  0
    4.7071   30.9574   55.4838 H   0  0
    3.7227   30.1355   47.6100 H   0  0
    1.7876   32.1329   50.9213 H   0  0
   -0.2244   29.0231   48.6880 H   0  0
    5.4749   34.5757   53.3953 H   0  0
    1.2913   27.3586   49.6370 H   0  0
    0.5668   28.2053   50.9621 H   0  0
    1.8504   29.9764   52.2181 H   0  0
    3.4203   30.5289   51.7365 H   0  0
    3.5102   27.9725   48.8624 H   0  0
    4.6069   29.0766   49.6688 H   0  0
    2.4489   32.1179   48.5016 H   0  0
    3.8080   31.7840   49.5147 H   0  0
   -0.1855   30.6093   50.6866 H   0  0
    0.0977   31.4689   49.1940 H   0  0
    1.2893   30.2093   47.1839 H   0  0
    1.8036   28.5581   47.4860 H   0  0
    4.9529   34.5505   55.8706 H   0  0
    4.3759   33.0613   56.6133 H   0  0
    3.3631   33.9102   55.4416 H   0  0
    5.7721   31.1302   50.0033 H   0  0
    6.7514   29.6672   49.8788 H   0  0
    7.4989   31.2426   49.6698 H   0  0
  1  2  1  0
  1  5  2  0
  1  9  1  0
  2  3  1  0
  2 14  2  0
  3  4  1  0
  3 27  1  0
  4  8  1  0
  4 10  2  0
  5  7  1  0
  5 24  1  0
  6  8  1  0
  6 16  1  0
  6 17  1  0
  6 18  1  0
  7 15  2  0
  7 23  1  0
  8 28  1  0
  9 19  2  0
  9 29  1  0
 11 18  1  0
 11 20  1  0
 11 22  1  0
 11 30  1  0
 12 17  1  0
 12 20  1  0
 12 21  1  0
 12 31  1  0
 13 16  1  0
 13 21  1  0
 13 22  1  0
 13 32  1  0
 15 19  1  0
 15 33  1  0
 16 34  1  0
 16 35  1  0
 17 36  1  0
 17 37  1  0
 18 38  1  0
 18 39  1  0
 19 25  1  0
 20 40  1  0
 20 41  1  0
 21 42  1  0
 21 43  1  0
 22 44  1  0
 22 45  1  0
 24 26  1  0
 25 46  1  0
 25 47  1  0
 25 48  1  0
 26 49  1  0
 26 50  1  0
 26 51  1  0
M  END
> <activity>
0

$$$$
ligand_490
  SciTegic10272118463D

 56 58  0  0  1  0            999 V2000
    4.1494   30.0717   50.1225 C   0  0
    3.2171   31.0524   50.5623 C   0  0
    1.9878   30.7227   49.9986 N   0  0
    2.1158   29.5536   49.2690 C   0  0
    3.4222   29.1410   49.3306 C   0  0
    5.4868   30.1760   50.5266 C   0  0
    3.5992   32.0869   51.4309 C   0  0
    5.8902   31.2660   51.2971 C   0  0
    4.9461   32.1581   51.8063 C   0  0
    6.3331   29.1369   50.2225 O   0  0
    0.7945   31.4483   50.1544 C   0  0
    5.1943   26.3782   53.3046 N   0  3
    5.5059   33.4634   53.0877 Br  0  0
    6.4576   28.1849   51.2855 C   0  0
    7.2179   31.4213   51.5948 O   0  0
    5.8742   26.8120   50.8784 C   0  0  2  0  0  0
    5.7449   25.7603   52.0018 C   0  0
    0.9520   28.8985   48.5740 C   0  0
    6.7044   26.2387   49.8879 O   0  0
    5.0546   25.4422   54.5204 C   0  0
    0.5338   32.5456   49.3380 C   0  0
   -0.1493   31.0344   51.0874 C   0  0
    7.8812   32.3803   50.7754 C   0  0
    6.3197   24.5877   54.7189 C   0  0
    4.8032   26.3329   55.7382 C   0  0
   -0.6316   33.2806   49.5192 C   0  0
   -1.2946   31.7935   51.2915 C   0  0
   -1.5352   32.9172   50.5095 C   0  0
    3.7999   28.2566   48.8469 H   0  0
    2.8790   32.7967   51.8103 H   0  0
    4.2897   26.7910   53.1167 H   0  0
    5.8078   27.1322   53.5817 H   0  0
    5.9897   28.5424   52.2052 H   0  0
    7.5059   28.0750   51.5421 H   0  0
    4.8820   26.9620   50.4522 H   0  0
    6.7083   25.3235   52.2539 H   0  0
    5.0205   24.9880   51.7412 H   0  0
    1.2840   28.1206   47.8880 H   0  0
    0.3532   29.6121   48.0074 H   0  0
    0.3060   28.4119   49.3000 H   0  0
    7.6207   26.2456   50.1796 H   0  0
    4.1852   24.8218   54.2912 H   0  0
    1.2470   32.8489   48.5852 H   0  0
    0.0251   30.1509   51.6835 H   0  0
    7.9648   32.0277   49.7461 H   0  0
    8.8879   32.5584   51.1512 H   0  0
    7.3709   33.3452   50.7696 H   0  0
    6.3398   23.7581   54.0153 H   0  0
    6.3490   24.1581   55.7187 H   0  0
    7.2352   25.1695   54.6044 H   0  0
    3.9060   26.9428   55.6361 H   0  0
    5.6465   27.0023   55.8877 H   0  0
    4.7060   25.7396   56.6487 H   0  0
   -0.8268   34.1470   48.9024 H   0  0
   -2.0080   31.4997   52.0475 H   0  0
   -2.4320   33.5003   50.6605 H   0  0
  1  2  2  0
  1  5  1  0
  1  6  1  0
  2  3  1  0
  2  7  1  0
  3  4  1  0
  3 11  1  0
  4  5  2  0
  4 18  1  0
  5 29  1  0
  6  8  2  0
  6 10  1  0
  7  9  2  0
  7 30  1  0
  8  9  1  0
  8 15  1  0
  9 13  1  0
 10 14  1  0
 11 21  2  0
 11 22  1  0
 12 17  1  0
 12 20  1  0
 12 31  1  0
 12 32  1  0
 14 16  1  0
 14 33  1  0
 14 34  1  0
 15 23  1  0
 16 17  1  0
 16 19  1  0
 16 35  1  0
 17 36  1  0
 17 37  1  0
 18 38  1  0
 18 39  1  0
 18 40  1  0
 19 41  1  0
 20 24  1  0
 20 25  1  0
 20 42  1  0
 21 26  1  0
 21 43  1  0
 22 27  2  0
 22 44  1  0
 23 45  1  0
 23 46  1  0
 23 47  1  0
 24 48  1  0
 24 49  1  0
 24 50  1  0
 25 51  1  0
 25 52  1  0
 25 53  1  0
 26 28  2  0
 26 54  1  0
 27 28  1  0
 27 55  1  0
 28 56  1  0
M  CHG  1  12   1
M  END
> <activity>
0

$$$$
ligand_491
  SciTegic10272118463D

 37 39  0  0  1  0            999 V2000
    4.8036   27.2819   52.8590 N   0  0
    1.5083   29.3575   48.8655 N   0  3
    6.2648   27.4184   52.8027 C   0  0  2  0  0  0
    6.7681   27.0142   51.3833 C   0  0
    3.8270   29.3679   51.8575 C   0  0
    4.2570   26.0668   53.2399 C   0  0
    4.0559   28.4931   53.0859 C   0  0
    2.5365   29.7846   49.8394 C   0  0
    6.8676   26.7096   54.0443 C   0  0
    4.9083   25.2267   54.0553 C   0  0
    2.9203   28.9364   50.8858 C   0  0
    1.3278   28.1581   48.6886 O   0  5
    6.2096   25.6061   54.6084 C   0  0
    4.3881   30.6496   51.7465 C   0  0
    0.8654   30.2287   48.2872 O   0  0
    3.1060   31.0594   49.7470 C   0  0
    4.0374   31.4827   50.6880 C   0  0
    8.5647   26.1596   51.4879 Br  0  0
    5.5811   25.7580   50.3992 Br  0  0
    6.7399   28.6767   50.2888 Br  0  0
    5.5059   31.2590   52.9180 Cl  0  0
    8.0187   27.1745   54.6733 C   0  0
    6.7025   24.9859   55.7492 C   0  0
    8.5104   26.5577   55.8145 C   0  0
    7.8521   25.4649   56.3546 C   0  0
    6.5317   28.4670   52.9450 H   0  0
    3.2786   25.8511   52.8422 H   0  0
    3.1063   28.1581   53.4647 H   0  0
    4.5158   29.0481   53.9032 H   0  0
    4.4677   24.2698   54.2872 H   0  0
    2.4732   27.9546   50.9743 H   0  0
    2.8239   31.7307   48.9476 H   0  0
    4.4696   32.4699   50.6107 H   0  0
    8.5310   28.0399   54.2787 H   0  0
    6.1733   24.1613   56.1977 H   0  0
    9.4042   26.9331   56.2882 H   0  0
    8.2256   24.9985   57.2545 H   0  0
  1  3  1  0
  1  6  1  0
  1  7  1  0
  2  8  1  0
  2 12  1  0
  2 15  2  0
  3  4  1  0
  3  9  1  0
  3 26  1  0
  4 18  1  0
  4 19  1  0
  4 20  1  0
  5  7  1  0
  5 11  2  0
  5 14  1  0
  6 10  2  0
  6 27  1  0
  7 28  1  0
  7 29  1  0
  8 11  1  0
  8 16  2  0
  9 13  2  0
  9 22  1  0
 10 13  1  0
 10 30  1  0
 11 31  1  0
 13 23  1  0
 14 17  2  0
 14 21  1  0
 16 17  1  0
 16 32  1  0
 17 33  1  0
 22 24  2  0
 22 34  1  0
 23 25  2  0
 23 35  1  0
 24 25  1  0
 24 36  1  0
 25 37  1  0
M  CHG  2   2   1  12  -1
M  END
> <activity>
0

$$$$
ligand_492
  SciTegic10272118463D

 24 25  0  0  1  0            999 V2000
    6.0443   28.3101   51.5614 C   0  0
    6.3311   27.7429   50.3440 N   0  0
    6.5014   27.8089   52.7427 C   0  0
    7.5770   26.1580   51.4666 N   0  0
    7.3676   26.6351   52.7212 C   0  0
    7.0969   26.7078   50.3106 C   0  0
    5.2405   29.4010   51.4975 O   0  0
    5.8395   30.6420   51.4062 C   0  0
    7.9061   26.1140   53.6949 O   0  0
    6.0678   28.6332   54.4799 Br  0  0
    5.5613   31.6169   52.3636 C   0  0
    7.5072   26.1579   49.0880 N   0  0
    4.7060   31.3585   53.3759 F   0  0
    6.7042   30.9570   50.3585 C   0  0
    6.1593   32.8678   52.2880 C   0  0
    7.3127   32.2025   50.2894 C   0  0
    7.0428   33.1579   51.2594 C   0  0
    8.1717   25.3496   51.4031 H   0  0
    8.3232   25.5623   49.0789 H   0  0
    7.4907   26.7629   48.2784 H   0  0
    6.9046   30.2225   49.5984 H   0  0
    5.9401   33.6160   53.0359 H   0  0
    7.9995   32.4306   49.4877 H   0  0
    7.5067   34.1316   51.2156 H   0  0
  1  2  1  0
  1  3  2  0
  1  7  1  0
  2  6  2  0
  3  5  1  0
  3 10  1  0
  4  5  1  0
  4  6  1  0
  4 18  1  0
  5  9  2  0
  6 12  1  0
  7  8  1  0
  8 11  2  0
  8 14  1  0
 11 13  1  0
 11 15  1  0
 12 19  1  0
 12 20  1  0
 14 16  2  0
 14 21  1  0
 15 17  2  0
 15 22  1  0
 16 17  1  0
 16 23  1  0
 17 24  1  0
M  END
> <activity>
0

$$$$
ligand_493
  SciTegic10272118463D

 46 49  0  0  1  0            999 V2000
    6.2524   27.7570   53.8728 C   0  0
    6.4723   26.4716   54.3174 N   0  0
    6.1528   27.7409   52.4980 C   0  0
    6.5441   25.6488   53.2563 N   0  0
    6.5849   25.9536   55.6368 C   0  0
    5.8147   30.1886   52.6808 C   0  0
    6.1133   28.8494   54.6880 O   0  0
    5.9060   30.0254   54.0237 C   0  0
    5.8736   29.0154   51.6899 C   0  0  2  0  0  0
    6.3539   26.3963   52.1785 C   0  0
    7.7234   26.1579   56.4337 C   0  0
    7.7217   25.7246   57.7737 C   0  0
    5.5058   25.2469   56.1759 C   0  0
    6.6432   25.0091   58.2907 C   0  0
    5.5269   24.7541   57.4880 C   0  0
    5.6519   31.4977   52.1344 C   0  0
    5.5517   32.5580   51.6848 N   0  0
    4.6080   28.9520   50.8302 C   0  0
    5.8275   31.0248   54.9543 N   0  0
    9.1059   26.9580   55.7744 Cl  0  0
    9.1060   26.1886   58.9958 Br  0  0
    6.6270   24.7021   59.6301 O   0  0
    4.3677   24.2037   57.9900 O   0  0
    6.3507   25.7864   50.8026 C   0  0
    3.3944   28.5535   51.3903 C   0  0
    4.6338   29.3580   49.4964 C   0  0
    4.3836   22.9728   58.6887 C   0  0
    2.2300   28.5580   50.6325 C   0  0
    3.4701   29.3580   48.7364 C   0  0
    2.2679   28.9573   49.3033 C   0  0
    6.7183   29.1876   51.0207 H   0  0
    4.6147   25.1095   55.5807 H   0  0
    5.5572   30.8001   55.8999 H   0  0
    5.7297   31.9861   54.6626 H   0  0
    5.7380   24.5571   59.9636 H   0  0
    7.1060   25.0141   50.6880 H   0  0
    6.5560   26.5321   50.0355 H   0  0
    5.3755   25.3580   50.5734 H   0  0
    3.3524   28.2533   52.4270 H   0  0
    5.5555   29.6861   49.0411 H   0  0
    3.5060   22.9580   59.3257 H   0  0
    5.2206   22.7997   59.3564 H   0  0
    4.3060   22.1580   57.9731 H   0  0
    1.2960   28.2450   51.0756 H   0  0
    3.5024   29.6678   47.7022 H   0  0
    1.3640   28.9525   48.7120 H   0  0
  1  2  1  0
  1  3  2  0
  1  7  1  0
  2  4  1  0
  2  5  1  0
  3  9  1  0
  3 10  1  0
  4 10  2  0
  5 11  2  0
  5 13  1  0
  6  8  2  0
  6  9  1  0
  6 16  1  0
  7  8  1  0
  8 19  1  0
  9 18  1  0
  9 31  1  0
 10 24  1  0
 11 12  1  0
 11 20  1  0
 12 14  2  0
 12 21  1  0
 13 15  2  0
 13 32  1  0
 14 15  1  0
 14 22  1  0
 15 23  1  0
 16 17  3  0
 18 25  2  0
 18 26  1  0
 19 33  1  0
 19 34  1  0
 22 35  1  0
 23 27  1  0
 24 36  1  0
 24 37  1  0
 24 38  1  0
 25 28  1  0
 25 39  1  0
 26 29  2  0
 26 40  1  0
 27 41  1  0
 27 42  1  0
 27 43  1  0
 28 30  2  0
 28 44  1  0
 29 30  1  0
 29 45  1  0
 30 46  1  0
M  END
> <activity>
0

$$$$
ligand_494
  SciTegic10272118463D

 23 24  0  0  1  0            999 V2000
    5.9427   27.0527   53.7914 C   0  0
    7.5163   25.5964   54.8461 N   0  0
    7.1678   26.3602   53.7796 C   0  0
    5.5096   28.0047   52.7316 C   0  0
    5.0845   26.9273   54.8421 N   0  0
    6.6276   25.5405   55.8677 C   0  0
    5.4206   26.1567   55.8878 N   0  0
    5.1182   27.5945   51.4448 C   0  0
    5.5060   29.3723   53.0224 C   0  0
    7.1058   24.6551   57.3042 S   0  0
    4.7159   28.5288   50.4897 C   0  0
    7.9783   26.5178   52.6887 O   0  0
    5.1244   30.3021   52.0599 C   0  0
    5.1060   26.2458   51.0861 N   0  0
    4.7231   29.8858   50.7947 C   0  0
    5.1569   32.1562   52.4828 Br  0  0
    5.8060   29.7194   54.0014 H   0  0
    8.3220   24.3212   56.8129 H   0  0
    4.3943   28.2077   49.5087 H   0  0
    7.5248   27.0000   51.9926 H   0  0
    5.2133   25.5775   51.8366 H   0  0
    4.4672   25.9914   50.3389 H   0  0
    4.4179   30.6111   50.0554 H   0  0
  1  3  2  0
  1  4  1  0
  1  5  1  0
  2  3  1  0
  2  6  2  0
  3 12  1  0
  4  8  2  0
  4  9  1  0
  5  7  2  0
  6  7  1  0
  6 10  1  0
  8 11  1  0
  8 14  1  0
  9 13  2  0
  9 17  1  0
 10 18  1  0
 11 15  2  0
 11 19  1  0
 12 20  1  0
 13 15  1  0
 13 16  1  0
 14 21  1  0
 14 22  1  0
 15 23  1  0
M  END
> <activity>
0

$$$$
ligand_495
  SciTegic10272118463D

 43 44  0  0  1  0            999 V2000
    4.1768   30.1763   51.2364 C   0  0
    2.8402   29.8702   50.9529 C   0  0
    2.6003   28.5582   51.3232 N   0  0
    4.7850   28.9888   51.7840 C   0  0
    3.7467   28.0273   51.8904 C   0  0
    3.9475   26.8033   52.5243 C   0  0
    6.0760   28.6342   52.2365 C   0  0
    4.8158   31.4782   51.0669 C   0  0
    6.2735   27.3994   52.8691 C   0  0
    2.5298   29.8826   47.7570 C   0  0
    1.7020   30.7274   50.3957 C   0  0
    5.2043   26.5183   53.0338 C   0  0
    7.5042   27.0373   53.3731 O   0  0
    1.8638   31.2888   48.6675 S   0  0
    7.8370   27.4890   54.6026 C   0  0
    3.1060   30.1583   46.6898 N   0  0
    4.4117   32.3360   50.2882 O   0  0
    7.5056   28.5650   55.0879 O   0  0
    2.3318   28.6321   48.2702 N   0  0
    1.3088   27.8596   51.2171 C   0  0
    5.4101   24.9095   54.0354 Br  0  0
    5.8330   31.6467   51.9343 O   0  0
    8.6645   26.4936   55.3981 C   0  0
    6.5152   32.8897   52.0363 C   0  0
    7.8414   32.8550   51.2742 C   0  0
    3.1255   26.1392   52.6889 H   0  0
    6.8979   29.3297   52.1590 H   0  0
    0.7226   30.2580   50.4776 H   0  0
    1.6199   31.6322   50.9975 H   0  0
    3.4537   29.3513   46.2005 H   0  0
    2.8649   27.8528   47.9079 H   0  0
    1.9188   28.5332   49.1832 H   0  0
    0.9018   27.9105   50.2125 H   0  0
    0.5884   28.3175   51.8880 H   0  0
    1.4060   26.8071   51.4821 H   0  0
    8.3058   25.4778   55.2349 H   0  0
    8.5933   26.7136   56.4632 H   0  0
    9.7062   26.5516   55.1087 H   0  0
    5.9048   33.7328   51.7067 H   0  0
    6.7059   33.0536   53.0908 H   0  0
    8.4153   33.7565   51.4867 H   0  0
    7.6803   32.7945   50.1975 H   0  0
    8.4472   31.9998   51.5716 H   0  0
  1  2  2  0
  1  4  1  0
  1  8  1  0
  2  3  1  0
  2 11  1  0
  3  5  1  0
  3 20  1  0
  4  5  2  0
  4  7  1  0
  5  6  1  0
  6 12  2  0
  6 26  1  0
  7  9  2  0
  7 27  1  0
  8 17  2  0
  8 22  1  0
  9 12  1  0
  9 13  1  0
 10 14  1  0
 10 16  2  0
 10 19  1  0
 11 14  1  0
 11 28  1  0
 11 29  1  0
 12 21  1  0
 13 15  1  0
 15 18  2  0
 15 23  1  0
 16 30  1  0
 19 31  1  0
 19 32  1  0
 20 33  1  0
 20 34  1  0
 20 35  1  0
 22 24  1  0
 23 36  1  0
 23 37  1  0
 23 38  1  0
 24 25  1  0
 24 39  1  0
 24 40  1  0
 25 41  1  0
 25 42  1  0
 25 43  1  0
M  END
> <activity>
0

$$$$
ligand_496
  SciTegic10272118463D

 25 25  0  0  1  0            999 V2000
    5.3057   24.5580   57.6240 N   0  0
    6.3279   25.2737   57.0837 C   0  0
    5.1129   26.3089   53.7154 C   0  0
    7.4840   25.5717   57.7991 C   0  0
    5.4741   24.1572   58.9006 C   0  0
    6.5377   24.4061   59.6876 N   0  0
    7.5397   25.1236   59.1238 C   0  0
    6.3250   25.9926   52.8070 C   0  0
    6.2269   25.7434   55.7901 O   0  0
    5.0887   25.4402   54.9888 C   0  0
    5.1099   27.5991   54.0570 F   0  0
    3.9805   26.0864   53.0480 F   0  0
    8.8774   26.5580   56.9604 Br  0  0
    4.4726   23.3912   59.4484 N   0  0
    6.3522   26.7241   51.6917 F   0  0
    7.5177   26.0934   53.4013 F   0  0
    8.7063   25.4146   60.0394 C   0  0
    6.2658   24.9584   52.4727 H   0  0
    4.1654   25.6412   55.5359 H   0  0
    5.0982   24.3807   54.7273 H   0  0
    3.6395   23.2773   58.8986 H   0  0
    4.5043   23.2152   60.4392 H   0  0
    8.4095   25.3688   61.0876 H   0  0
    9.1063   26.4120   59.8587 H   0  0
    9.5039   24.6863   59.8879 H   0  0
  1  2  2  0
  1  5  1  0
  2  4  1  0
  2  9  1  0
  3  8  1  0
  3 10  1  0
  3 11  1  0
  3 12  1  0
  4  7  2  0
  4 13  1  0
  5  6  2  0
  5 14  1  0
  6  7  1  0
  7 17  1  0
  8 15  1  0
  8 16  1  0
  8 18  1  0
  9 10  1  0
 10 19  1  0
 10 20  1  0
 14 21  1  0
 14 22  1  0
 17 23  1  0
 17 24  1  0
 17 25  1  0
M  END
> <activity>
0

$$$$
ligand_497
  SciTegic10272118463D

 40 43  0  0  1  0            999 V2000
    5.7724   29.5238   51.6980 C   0  0
    5.9060   29.8584   53.0716 C   0  0
    6.3060   28.3866   51.1854 N   0  0
   -0.9915   32.9580   48.4645 C   0  0
   -2.2790   33.5202   48.6815 N   0  3
    5.5060   31.1735   53.7500 C   0  0
    6.5077   28.9313   53.8810 N   0  0
    5.1013   30.2705   50.7660 O   0  0
    4.2836   32.1580   51.8593 N   0  0
    4.8024   32.2527   53.1537 C   0  0
    6.9250   27.5720   52.0692 C   0  0
   -0.2101   32.7147   49.5467 O   0  0
    3.9874   30.9391   51.2136 C   0  0  1  0  0  0
    7.0250   27.7955   53.3977 N   0  0
   -0.3248   32.5579   47.3179 C   0  0
    0.9508   32.1580   49.1173 C   0  0
    0.9153   32.0623   47.7333 C   0  0
    3.0682   31.1504   50.0291 C   0  0
    1.9277   31.8569   50.1296 C   0  0
   -3.0885   33.4365   47.7638 O   0  5
    5.8980   31.3580   55.0880 C   0  0
   -2.4940   34.0381   49.7720 O   0  0
    4.5934   33.4334   53.8880 C   0  0
    7.7776   26.1580   51.4694 S   0  0
    5.5508   32.4815   55.8335 C   0  0
    4.9283   33.5425   55.2204 C   0  0
    5.9060   32.5931   57.6994 Br  0  0
    7.5060   26.0220   49.6810 C   0  0
    4.2294   33.0107   51.3230 H   0  0
    3.4397   30.2849   51.8996 H   0  0
   -0.6945   32.6194   46.3046 H   0  0
    1.7006   31.6775   47.0989 H   0  0
    3.3782   30.6982   49.0974 H   0  0
    1.6656   32.2762   51.0880 H   0  0
    6.4943   30.6033   55.5563 H   0  0
    4.0508   34.2705   53.4880 H   0  0
    4.6785   34.4325   55.7777 H   0  0
    8.1399   25.2393   49.2636 H   0  0
    7.7411   26.9580   49.1744 H   0  0
    6.4676   25.7582   49.4880 H   0  0
  1  2  2  0
  1  3  1  0
  1  8  1  0
  2  6  1  0
  2  7  1  0
  3 11  2  0
  4  5  1  0
  4 12  1  0
  4 15  2  0
  5 20  1  0
  5 22  2  0
  6 10  2  0
  6 21  1  0
  7 14  2  0
  8 13  1  0
  9 10  1  0
  9 13  1  0
  9 29  1  0
 10 23  1  0
 11 14  1  0
 11 24  1  0
 12 16  1  0
 13 18  1  0
 13 30  1  0
 15 17  1  0
 15 31  1  0
 16 17  2  0
 16 19  1  0
 17 32  1  0
 18 19  2  0
 18 33  1  0
 19 34  1  0
 21 25  2  0
 21 35  1  0
 23 26  2  0
 23 36  1  0
 24 28  1  0
 25 26  1  0
 25 27  1  0
 26 37  1  0
 28 38  1  0
 28 39  1  0
 28 40  1  0
M  CHG  2   5   1  20  -1
M  END
> <activity>
0

$$$$
ligand_498
  SciTegic10272118463D

 41 47  0  0  1  0            999 V2000
    4.6985   29.1100   52.2575 N   0  0
    4.2242   27.8205   52.2658 C   0  0
    5.6516   29.5263   53.2292 C   0  0
    3.1836   27.3994   51.4943 N   0  0
    4.1894   30.0266   51.3348 C   0  0
    3.0474   29.5936   50.5960 C   0  0
    6.3238   28.4292   53.9985 C   0  0
    4.8093   26.7837   53.1770 C   0  0
    5.9066   27.0962   53.9817 C   0  0
    2.5409   28.2845   50.7150 C   0  0
    2.4168   30.4763   49.7175 C   0  0
    6.5075   26.1325   54.8376 C   0  0
    4.6911   31.3311   51.0368 C   0  0
    7.3412   28.7668   54.8518 C   0  0
    5.9045   30.7084   53.4771 O   0  0
    2.8639   31.7579   49.5015 C   0  0
    1.3309   30.1191   48.9441 C   0  0
    7.5898   26.5159   55.6325 C   0  0
    1.3752   27.9475   49.9756 C   0  0
    4.0293   32.1596   50.1477 C   0  0
    8.0198   27.8138   55.5642 C   0  0
    0.8053   28.8440   49.0693 C   0  0
    1.8943   32.4178   48.5455 C   0  0
    1.0577   31.2526   48.0092 C   0  0
    4.3131   25.5047   53.2951 C   0  0
    8.3059   25.4047   56.9978 Br  0  0
    5.9518   24.8606   54.9057 C   0  0
    4.8521   24.5585   54.1384 C   0  0
    5.6019   31.7114   51.4681 H   0  0
    7.5055   29.7956   55.0877 H   0  0
    0.9629   26.9579   50.0781 H   0  0
    4.4814   33.1182   49.9758 H   0  0
    8.7060   28.1438   56.2879 H   0  0
   -0.0359   28.5320   48.4671 H   0  0
    2.3838   32.9611   47.7370 H   0  0
    1.2184   33.0946   49.0674 H   0  0
    0.0066   31.4997   47.8556 H   0  0
    1.5057   30.9440   47.0829 H   0  0
    3.5059   25.2642   52.6881 H   0  0
    6.3828   24.1468   55.5786 H   0  0
    4.4393   23.5635   54.1601 H   0  0
  1  2  1  0
  1  3  1  0
  1  5  1  0
  2  4  2  0
  2  8  1  0
  3  7  1  0
  3 15  2  0
  4 10  1  0
  5  6  1  0
  5 13  2  0
  6 10  2  0
  6 11  1  0
  7  9  1  0
  7 14  2  0
  8  9  2  0
  8 25  1  0
  9 12  1  0
 10 19  1  0
 11 16  1  0
 11 17  2  0
 12 18  1  0
 12 27  2  0
 13 20  1  0
 13 29  1  0
 14 21  1  0
 14 30  1  0
 16 20  2  0
 16 23  1  0
 17 22  1  0
 17 24  1  0
 18 21  2  0
 18 26  1  0
 19 22  2  0
 19 31  1  0
 20 32  1  0
 21 33  1  0
 22 34  1  0
 23 24  1  0
 23 35  1  0
 23 36  1  0
 24 37  1  0
 24 38  1  0
 25 28  2  0
 25 39  1  0
 27 28  1  0
 27 40  1  0
 28 41  1  0
M  END
> <activity>
0

$$$$
ligand_499
  SciTegic10272118463D

 25 26  0  0  1  0            999 V2000
    6.9700   26.2207   54.4091 C   0  0
    7.8487   26.1677   55.5939 C   0  0
    7.1927   25.5684   56.8129 C   0  0
    5.6688   25.8371   54.4594 C   0  0
    5.1065   25.3580   55.6240 N   0  0
    5.8500   25.1536   56.7959 C   0  0
    7.9056   25.4098   58.0066 C   0  0
    9.0130   26.5608   55.6055 O   0  0
    7.8000   26.8870   52.7319 Br  0  0
    5.2577   24.5580   57.9075 C   0  0
    7.3225   24.8316   59.1346 C   0  0
    5.9903   24.3989   59.0765 C   0  0
    4.6966   25.8622   53.2938 C   0  0
    8.1273   24.7143   60.2501 O   0  0
    7.5362   24.3309   61.4860 C   0  0
    4.1277   25.1126   55.6330 H   0  0
    8.9348   25.7322   58.0703 H   0  0
    4.2258   24.2382   57.8870 H   0  0
    5.5030   23.9501   59.9282 H   0  0
    3.8594   26.5240   53.5139 H   0  0
    4.3068   24.8629   53.1006 H   0  0
    5.1581   26.2105   52.3722 H   0  0
    8.3051   24.2529   62.2487 H   0  0
    7.0510   23.3579   61.4231 H   0  0
    6.8110   25.0746   61.8156 H   0  0
  1  2  1  0
  1  4  2  0
  1  9  1  0
  2  3  1  0
  2  8  2  0
  3  6  2  0
  3  7  1  0
  4  5  1  0
  4 13  1  0
  5  6  1  0
  5 16  1  0
  6 10  1  0
  7 11  2  0
  7 17  1  0
 10 12  2  0
 10 18  1  0
 11 12  1  0
 11 14  1  0
 12 19  1  0
 13 20  1  0
 13 21  1  0
 13 22  1  0
 14 15  1  0
 15 23  1  0
 15 24  1  0
 15 25  1  0
M  END
> <activity>
0

$$$$
ligand_500
  SciTegic10272118463D

 38 38  0  0  1  0            999 V2000
    6.0747   28.3472   52.5075 C   0  0
    6.1053   29.5518   51.6076 C   0  0
    5.0314   27.3972   52.4664 C   0  0
    5.0381   26.3255   53.3886 C   0  0
    7.1061   28.1953   53.4371 C   0  0
    6.1241   26.1463   54.2658 C   0  0
    7.1477   27.0991   54.2890 C   0  0
    5.8927   30.7093   52.2585 N   0  0
    6.3059   29.4370   50.3989 O   0  0
    5.8383   32.0891   51.7537 C   0  0
    8.6163   26.9577   55.4883 Br  0  0
    3.8826   27.5334   51.4587 C   0  0
    3.8607   25.3613   53.4903 C   0  0
    6.1801   24.9343   55.1970 C   0  0
    7.5061   32.0263   49.8919 O   0  0
    7.1958   32.5776   51.1582 C   0  0
    5.5042   32.9760   52.9700 C   0  0
    4.7009   32.2466   50.7167 C   0  0
    7.8983   28.9318   53.4950 H   0  0
    5.6488   30.6144   53.2332 H   0  0
    3.5723   26.5593   51.0892 H   0  0
    4.1438   28.0972   50.5645 H   0  0
    3.0264   28.0230   51.9182 H   0  0
    3.6370   25.1740   54.5396 H   0  0
    4.0918   24.4080   53.0243 H   0  0
    2.9340   25.7580   53.0880 H   0  0
    7.1862   24.6930   55.5345 H   0  0
    5.8181   24.0386   54.6889 H   0  0
    5.5609   25.1066   56.0767 H   0  0
    8.4468   31.8185   49.8814 H   0  0
    8.0105   32.3175   51.8367 H   0  0
    7.2205   33.6653   51.0705 H   0  0
    4.5124   32.7583   53.3684 H   0  0
    5.5292   34.0378   52.7200 H   0  0
    6.2133   32.8139   53.7811 H   0  0
    3.7176   32.0694   51.1559 H   0  0
    4.8100   31.5495   49.8878 H   0  0
    4.7063   33.2478   50.2881 H   0  0
  1  2  1  0
  1  3  2  0
  1  5  1  0
  2  8  1  0
  2  9  2  0
  3  4  1  0
  3 12  1  0
  4  6  2  0
  4 13  1  0
  5  7  2  0
  5 19  1  0
  6  7  1  0
  6 14  1  0
  7 11  1  0
  8 10  1  0
  8 20  1  0
 10 16  1  0
 10 17  1  0
 10 18  1  0
 12 21  1  0
 12 22  1  0
 12 23  1  0
 13 24  1  0
 13 25  1  0
 13 26  1  0
 14 27  1  0
 14 28  1  0
 14 29  1  0
 15 16  1  0
 15 30  1  0
 16 31  1  0
 16 32  1  0
 17 33  1  0
 17 34  1  0
 17 35  1  0
 18 36  1  0
 18 37  1  0
 18 38  1  0
M  END
> <activity>
0

$$$$
ligand_501
  SciTegic10272118463D

 52 56  0  0  1  0            999 V2000
    4.8001   29.3964   51.2515 C   0  0  1  0  0  0
    2.0148   28.4522   50.5678 C   0  0  2  0  0  0
    2.7410   30.5222   49.2081 C   0  0  1  0  0  0
    5.2806   28.4508   52.3613 C   0  0
    4.4529   28.7286   49.8873 N   0  3  1  0  0  0
    3.5182   30.1984   51.6287 N   0  3  2  0  0  0
    6.0053   30.3571   51.1360 C   0  0
    1.6383   29.4433   49.4396 C   0  0
    6.7060   30.1867   52.2564 N   0  0
    6.3898   29.0327   52.9415 C   0  0
    2.3535   29.2117   51.8689 C   0  0
    3.2731   27.7580   50.0158 C   0  0
    3.0530   31.2313   50.5636 C   0  0
    3.9972   29.6821   48.7506 C   0  0
    4.8380   27.2288   52.8983 C   0  0
    6.2586   31.1539   50.2360 O   0  0
    0.6480   29.3038   48.7293 O   0  0
    7.0585   28.4755   54.0286 C   0  0
    2.3319   31.5924   48.1287 C   0  0
    0.8962   27.4136   50.8421 C   0  0
    5.5212   26.6373   53.9595 C   0  0
    6.6238   27.2581   54.5350 C   0  0
    4.9385   24.9580   54.6314 Br  0  0
    0.8616   32.1024   48.0069 C   0  0
    0.1048   32.4795   49.2984 C   0  0
   -1.2321   33.1803   49.0164 C   0  0
    5.2622   28.2065   49.5809 H   0  0
    3.7031   30.6720   52.5057 H   0  0
    7.5140   30.7558   52.4573 H   0  0
    2.7060   28.5580   52.6602 H   0  0
    1.5060   29.7580   52.2643 H   0  0
    3.6408   26.9580   50.6265 H   0  0
    3.1060   27.3580   49.0146 H   0  0
    2.1904   31.7383   50.9968 H   0  0
    3.8420   31.9796   50.4759 H   0  0
    4.9290   30.1580   48.5132 H   0  0
    3.7931   29.0761   47.8631 H   0  0
    3.9621   26.7022   52.5635 H   0  0
    7.9060   28.9580   54.4816 H   0  0
    2.9590   32.4750   48.2689 H   0  0
    2.6207   31.2287   47.1401 H   0  0
    0.5191   26.9508   49.9280 H   0  0
    0.0497   27.8637   51.3614 H   0  0
    1.2475   26.6007   51.4806 H   0  0
    7.1342   26.7993   55.3699 H   0  0
    0.8678   32.9573   47.3318 H   0  0
    0.2566   31.3633   47.4880 H   0  0
   -0.0941   31.5905   49.8953 H   0  0
    0.7060   33.1220   49.9286 H   0  0
   -1.7580   33.4085   49.9441 H   0  0
   -1.8898   32.5580   48.4085 H   0  0
   -1.0817   34.1215   48.4860 H   0  0
  1  4  1  0
  1  5  1  0
  1  6  1  0
  1  7  1  0
  2  8  1  0
  2 11  1  0
  2 12  1  0
  2 20  1  0
  3  8  1  0
  3 13  1  0
  3 14  1  0
  3 19  1  0
  4 10  2  0
  4 15  1  0
  5 12  1  0
  5 14  1  0
  5 27  1  0
  6 11  1  0
  6 13  1  0
  6 28  1  0
  7  9  1  0
  7 16  2  0
  8 17  2  0
  9 10  1  0
  9 29  1  0
 10 18  1  0
 11 30  1  0
 11 31  1  0
 12 32  1  0
 12 33  1  0
 13 34  1  0
 13 35  1  0
 14 36  1  0
 14 37  1  0
 15 21  2  0
 15 38  1  0
 18 22  2  0
 18 39  1  0
 19 24  1  0
 19 40  1  0
 19 41  1  0
 20 42  1  0
 20 43  1  0
 20 44  1  0
 21 22  1  0
 21 23  1  0
 22 45  1  0
 24 25  1  0
 24 46  1  0
 24 47  1  0
 25 26  1  0
 25 48  1  0
 25 49  1  0
 26 50  1  0
 26 51  1  0
 26 52  1  0
M  CHG  2   5   1   6   1
M  END
> <activity>
0

$$$$
ligand_502
  SciTegic10272118463D

 31 32  0  0  1  0            999 V2000
    6.6121   26.2318   53.1891 N   0  0
    6.5632   26.5960   51.5011 S   0  0
    5.5936   25.8218   54.0184 C   0  0
    7.7424   26.5165   53.8546 N   0  0
    6.2770   28.3796   51.4198 C   0  0
    6.1785   25.7825   55.2735 C   0  0
    7.4841   26.2508   55.1105 C   0  0
    6.4185   29.3335   52.4153 C   0  0
    5.7159   30.3928   50.5558 N   0  0
    5.8105   29.1055   50.3186 C   0  0
    6.0778   30.5307   51.8396 N   0  0
    5.3819   25.9513   50.9282 O   0  0
    7.9058   26.3238   50.9769 O   0  0
    5.3603   25.2576   56.9054 Br  0  0
    4.1917   25.5044   53.5608 C   0  0
    8.5284   26.4931   56.1698 C   0  0
    6.0527   31.8544   52.4553 C   0  0
    7.0608   32.8173   51.7976 C   0  0
    6.7125   29.2683   53.4498 H   0  0
    5.5401   28.6899   49.3608 H   0  0
    3.5077   25.3959   54.4021 H   0  0
    4.1741   24.5610   53.0207 H   0  0
    3.7805   26.2799   52.9094 H   0  0
    8.3056   27.4211   56.6882 H   0  0
    9.5388   26.5725   55.7670 H   0  0
    8.5371   25.7049   56.9261 H   0  0
    6.2645   31.7506   53.5185 H   0  0
    5.0381   32.2430   52.3705 H   0  0
    7.0418   33.7905   52.2874 H   0  0
    6.8339   32.9805   50.7430 H   0  0
    8.0814   32.4387   51.8640 H   0  0
  1  2  1  0
  1  3  1  0
  1  4  1  0
  2  5  1  0
  2 12  2  0
  2 13  2  0
  3  6  2  0
  3 15  1  0
  4  7  2  0
  5  8  2  0
  5 10  1  0
  6  7  1  0
  6 14  1  0
  7 16  1  0
  8 11  1  0
  8 19  1  0
  9 10  2  0
  9 11  1  0
 10 20  1  0
 11 17  1  0
 15 21  1  0
 15 22  1  0
 15 23  1  0
 16 24  1  0
 16 25  1  0
 16 26  1  0
 17 18  1  0
 17 27  1  0
 17 28  1  0
 18 29  1  0
 18 30  1  0
 18 31  1  0
M  END
> <activity>
0

$$$$
ligand_503
  SciTegic10272118463D

 61 65  0  0  1  0            999 V2000
    6.2909   28.3092   52.1702 N   0  0
    6.3060   29.7050   53.9365 C   0  0
    7.0176   28.5333   54.2879 C   0  0
    6.1319   29.6462   52.5331 C   0  0
    6.9165   27.6323   53.2042 C   0  0
    2.5523   30.7303   49.3361 C   0  0  1  0  0  0
    2.7239   28.3544   50.2848 N   0  3  2  0  0  0
    0.9914   30.6549   49.2774 C   0  0
    0.8812   29.1866   48.7802 C   0  0  2  0  0  0
    3.1040   29.8374   50.4778 C   0  0
    5.8523   27.6594   50.9349 C   0  0
    1.2317   28.1635   49.9057 C   0  0
    5.8374   30.8077   51.8017 C   0  0
    7.3952   26.3140   53.2902 C   0  0
    7.7398   28.1299   55.4227 C   0  0
    5.9060   30.8670   54.6327 C   0  0
    3.0186   30.1306   47.9866 C   0  0
    4.5612   26.7953   51.1375 C   0  0  2  0  0  0
    3.2217   27.5003   51.4733 C   0  0
    1.9257   29.1203   47.6316 C   0  0
    8.0838   26.7915   55.5644 C   0  0
    5.5060   31.9836   53.9036 C   0  0
    5.5102   31.9610   52.5144 C   0  0
    7.9060   25.9022   54.5167 C   0  0
    3.0767   32.1573   49.5128 C   0  0
    8.7060   26.1580   57.2445 Br  0  0
    5.0518   33.5928   54.8147 Br  0  0
    4.7062   25.8264   52.1585 O   0  0
    0.3797   31.6525   48.2384 C   0  0
    0.2982   30.9443   50.6504 C   0  0
    3.2232   28.0254   49.4679 H   0  0
   -0.1124   28.9667   48.3967 H   0  0
    2.8293   30.1632   51.4823 H   0  0
    4.1678   29.7828   50.3863 H   0  0
    5.7393   28.4003   50.1472 H   0  0
    6.6684   27.0197   50.5956 H   0  0
    0.6331   28.2740   50.8092 H   0  0
    1.1060   27.1371   49.5608 H   0  0
    5.8636   30.8332   50.7238 H   0  0
    7.3129   25.6171   52.4704 H   0  0
    7.9060   28.8109   56.2435 H   0  0
    6.0041   30.9580   55.7006 H   0  0
    4.0019   29.6598   48.0414 H   0  0
    3.0942   30.8900   47.2056 H   0  0
    4.4331   26.2286   50.2236 H   0  0
    2.4361   26.7595   51.6297 H   0  0
    3.2781   28.1354   52.3591 H   0  0
    2.3197   28.1129   47.4880 H   0  0
    1.5060   29.4452   46.6880 H   0  0
    5.2583   32.8625   51.9749 H   0  0
    8.1881   24.8733   54.6579 H   0  0
    2.7461   32.5610   50.4680 H   0  0
    2.7060   32.7873   48.7035 H   0  0
    4.1649   32.2027   49.4968 H   0  0
    5.3137   25.1388   51.8710 H   0  0
    0.2859   32.6574   48.6522 H   0  0
   -0.6079   31.3580   47.8888 H   0  0
    0.9898   31.7583   47.3436 H   0  0
    0.4583   31.9795   50.9528 H   0  0
    0.6532   30.3300   51.4758 H   0  0
   -0.7797   30.7989   50.6262 H   0  0
  1  4  1  0
  1  5  1  0
  1 11  1  0
  2  3  1  0
  2  4  2  0
  2 16  1  0
  3  5  2  0
  3 15  1  0
  4 13  1  0
  5 14  1  0
  6  8  1  0
  6 10  1  0
  6 17  1  0
  6 25  1  0
  7 10  1  0
  7 12  1  0
  7 19  1  0
  7 31  1  0
  8  9  1  0
  8 29  1  0
  8 30  1  0
  9 12  1  0
  9 20  1  0
  9 32  1  0
 10 33  1  0
 10 34  1  0
 11 18  1  0
 11 35  1  0
 11 36  1  0
 12 37  1  0
 12 38  1  0
 13 23  2  0
 13 39  1  0
 14 24  2  0
 14 40  1  0
 15 21  2  0
 15 41  1  0
 16 22  2  0
 16 42  1  0
 17 20  1  0
 17 43  1  0
 17 44  1  0
 18 19  1  0
 18 28  1  0
 18 45  1  0
 19 46  1  0
 19 47  1  0
 20 48  1  0
 20 49  1  0
 21 24  1  0
 21 26  1  0
 22 23  1  0
 22 27  1  0
 23 50  1  0
 24 51  1  0
 25 52  1  0
 25 53  1  0
 25 54  1  0
 28 55  1  0
 29 56  1  0
 29 57  1  0
 29 58  1  0
 30 59  1  0
 30 60  1  0
 30 61  1  0
M  CHG  1   7   1
M  END
> <activity>
0

$$$$
ligand_504
  SciTegic10272118463D

 51 56  0  0  1  0            999 V2000
    2.5502   30.9456   49.5339 C   0  0
    4.7877   31.1442   50.5435 N   0  0
    3.8558   30.3916   49.8780 C   0  0
    6.1185   30.6213   50.8562 C   0  0  2  0  0  0
    2.0298   30.8188   48.1441 C   0  0
    1.7373   31.4621   50.4888 C   0  0
    6.0842   29.5274   51.9178 C   0  0
    6.4837   28.2239   51.5509 C   0  0
    0.8009   31.3907   47.8880 O   0  0
    0.3070   31.9064   50.2134 C   0  0  2  0  0  0
    6.7412   27.3252   52.5924 C   0  0
    0.3309   32.4154   48.7508 C   0  0  2  0  0  0
   -0.3637   32.9578   51.1042 C   0  0
    7.1893   31.9736   51.3895 S   0  0
   -1.0328   32.9579   48.3355 C   0  0
   -1.3755   33.7173   50.6319 C   0  0
    5.8320   29.8257   53.2643 C   0  0
   -1.8031   33.5848   49.2464 C   0  0
    4.1268   29.2561   49.4895 O   0  0
    6.5220   27.6101   53.9322 C   0  0
    2.5447   30.2474   47.1827 O   0  0
    7.3363   26.0926   52.3974 C   0  0
    6.0463   28.8745   54.2576 C   0  0
    6.9520   26.4267   54.7687 C   0  0
    7.3580   25.3598   53.7260 C   0  0
    4.5700   32.4115   51.2211 C   0  0
   -2.2386   35.0487   51.8004 Br  0  0
    5.9060   33.1776   51.2325 C   0  0
    6.7060   27.7474   50.2417 C   0  0
    7.3828   26.5579   50.0221 C   0  0
    7.7649   25.7816   51.1035 C   0  0
    6.6218   30.3031   49.9468 H   0  0
    2.1074   31.4841   51.4881 H   0  0
   -0.3081   31.0084   50.2934 H   0  0
    1.0287   33.2529   48.6822 H   0  0
   -0.0834   33.0721   52.1394 H   0  0
   -1.3694   32.8688   47.3129 H   0  0
    5.5364   30.8223   53.5542 H   0  0
   -2.7677   33.9743   48.9542 H   0  0
    5.9070   29.1677   55.2746 H   0  0
    6.1530   26.0629   55.4164 H   0  0
    7.7980   26.6858   55.4069 H   0  0
    8.3060   24.9021   53.9792 H   0  0
    6.6199   24.5570   53.7163 H   0  0
    4.2396   32.1938   52.2377 H   0  0
    3.7860   32.9581   50.7072 H   0  0
    6.0777   33.6871   50.2920 H   0  0
    5.9738   33.8995   52.0472 H   0  0
    6.4190   28.3367   49.3915 H   0  0
    7.6589   26.2645   49.0188 H   0  0
    8.3971   24.9580   50.8628 H   0  0
  1  3  1  0
  1  5  1  0
  1  6  2  0
  2  3  1  0
  2  4  1  0
  2 26  1  0
  3 19  2  0
  4  7  1  0
  4 14  1  0
  4 32  1  0
  5  9  1  0
  5 21  2  0
  6 10  1  0
  6 33  1  0
  7  8  1  0
  7 17  2  0
  8 11  2  0
  8 29  1  0
  9 12  1  0
 10 12  1  0
 10 13  1  0
 10 34  1  0
 11 20  1  0
 11 22  1  0
 12 15  1  0
 12 35  1  0
 13 16  2  0
 13 36  1  0
 14 28  1  0
 15 18  2  0
 15 37  1  0
 16 18  1  0
 16 27  1  0
 17 23  1  0
 17 38  1  0
 18 39  1  0
 20 23  2  0
 20 24  1  0
 22 25  1  0
 22 31  2  0
 23 40  1  0
 24 25  1  0
 24 41  1  0
 24 42  1  0
 25 43  1  0
 25 44  1  0
 26 28  1  0
 26 45  1  0
 26 46  1  0
 28 47  1  0
 28 48  1  0
 29 30  2  0
 29 49  1  0
 30 31  1  0
 30 50  1  0
 31 51  1  0
M  END
> <activity>
0

$$$$
ligand_505
  SciTegic10272118463D

 20 21  0  0  1  0            999 V2000
    5.4211   27.6088   51.2827 C   0  0
    5.9037   28.5489   49.8882 S   0  0
    4.1820   27.2901   51.8104 C   0  0
    6.4206   27.1040   52.0468 O   0  0
    4.4493   26.5420   52.9637 C   0  0
    6.2125   30.1275   50.6147 C   0  0
    5.8292   26.4416   53.0754 C   0  0
    7.0130   30.9449   49.8883 N   0  0
    5.6269   30.4484   51.7995 N   0  0
    6.6771   25.7763   54.0478 C   0  0
    2.4877   27.7768   51.0883 Br  0  0
    7.9060   25.7580   53.9741 O   0  0
    6.7061   32.5982   51.6234 C   0  0
    7.2557   32.1712   50.4139 C   0  0
    5.8831   31.6892   52.2885 C   0  0
    3.7157   26.1152   53.6320 H   0  0
    6.1372   25.2771   54.8521 H   0  0
    6.9058   33.5809   52.0225 H   0  0
    7.9057   32.8079   49.8381 H   0  0
    5.4212   31.9388   53.2347 H   0  0
  1  2  1  0
  1  3  2  0
  1  4  1  0
  2  6  1  0
  3  5  1  0
  3 11  1  0
  4  7  1  0
  5  7  2  0
  5 16  1  0
  6  8  2  0
  6  9  1  0
  7 10  1  0
  8 14  1  0
  9 15  2  0
 10 12  2  0
 10 17  1  0
 13 14  2  0
 13 15  1  0
 13 18  1  0
 14 19  1  0
 15 20  1  0
M  END
> <activity>
0

$$$$
ligand_506
  SciTegic10272118463D

 27 30  0  0  1  0            999 V2000
    6.1738   29.1054   52.3375 C   0  0
    5.7397   28.3452   51.2279 C   0  0
    5.6078   30.3809   52.5225 C   0  0
    4.6590   30.8961   51.6182 C   0  0
    4.7458   28.8587   50.3786 C   0  0
    6.2743   26.9928   50.9451 N   0  3
    4.2002   30.1305   50.5401 C   0  0
    7.4030   28.5168   53.4882 S   0  0
    7.2361   26.5989   55.4449 C   0  0
    6.6388   27.1448   54.2999 C   0  0
    5.9060   31.2077   53.5530 N   0  0
    4.2449   32.1564   51.8784 N   0  0
    5.0962   32.6197   53.2380 S   0  0
    6.5587   25.5208   56.0438 C   0  0
    8.3542   26.9337   56.1580 N   0  0
    7.2752   25.2398   57.1771 N   0  0
    5.4620   26.6416   53.8342 N   0  0
    5.4439   24.9580   55.5952 N   0  0
    8.3062   26.1494   57.2046 C   0  0
    5.4758   26.1311   50.6071 O   0  5
    4.9401   25.5746   54.4922 C   0  0
    7.4803   26.7863   51.0242 O   0  0
    2.8748   30.7658   49.3249 Br  0  0
    4.3742   28.2590   49.5605 H   0  0
    7.0872   24.5547   57.8944 H   0  0
    9.0061   26.1574   58.0298 H   0  0
    4.0122   25.1833   54.1000 H   0  0
  1  2  2  0
  1  3  1  0
  1  8  1  0
  2  5  1  0
  2  6  1  0
  3  4  1  0
  3 11  2  0
  4  7  1  0
  4 12  2  0
  5  7  2  0
  5 24  1  0
  6 20  1  0
  6 22  2  0
  7 23  1  0
  8 10  1  0
  9 10  2  0
  9 14  1  0
  9 15  1  0
 10 17  1  0
 11 13  1  0
 12 13  1  0
 14 16  1  0
 14 18  2  0
 15 19  2  0
 16 19  1  0
 16 25  1  0
 17 21  2  0
 18 21  1  0
 19 26  1  0
 21 27  1  0
M  CHG  2   6   1  20  -1
M  END
> <activity>
0

$$$$
ligand_507
  SciTegic10272118463D

 17 18  0  0  1  0            999 V2000
    7.5058   26.1987   53.9940 C   0  0
    8.1147   26.1612   55.1817 N   0  0
    8.0808   26.5580   52.8041 N   0  0
    6.1472   25.8279   53.8192 C   0  0
    5.3792   25.3620   54.8879 C   0  0
    7.1053   26.4666   51.9352 C   0  0
    7.3691   25.7225   56.2340 C   0  0
    5.9157   26.0405   52.4787 N   0  0
    6.0358   25.2922   56.1230 C   0  0
    5.1061   24.5701   57.6269 Br  0  0
    8.0841   25.7445   57.5753 C   0  0
    4.3502   25.0622   54.7606 H   0  0
    7.1726   26.6758   50.8761 H   0  0
    5.0699   25.8972   51.9439 H   0  0
    9.0926   26.1570   57.5047 H   0  0
    8.1581   24.7376   57.9855 H   0  0
    7.5284   26.3574   58.2846 H   0  0
  1  2  2  0
  1  3  1  0
  1  4  1  0
  2  7  1  0
  3  6  2  0
  4  5  2  0
  4  8  1  0
  5  9  1  0
  5 12  1  0
  6  8  1  0
  6 13  1  0
  7  9  2  0
  7 11  1  0
  8 14  1  0
  9 10  1  0
 11 15  1  0
 11 16  1  0
 11 17  1  0
M  END
> <activity>
0

$$$$
ligand_508
  SciTegic10272118463D

 37 39  0  0  1  0            999 V2000
    4.9507   28.6650   52.1184 N   0  0
    3.1789   28.8760   50.5069 C   0  0
    3.8421   28.1568   51.4503 C   0  0
    4.5594   30.8354   51.1420 C   0  0
    3.5817   30.2455   50.1555 C   0  0
    5.0536   30.0733   52.2198 C   0  0
    6.2214   27.9021   52.0436 C   0  0
    3.1071   30.8914   49.2189 O   0  0
    5.5873   30.7410   53.3295 C   0  0
    1.5888   28.1611   49.5505 Br  0  0
    4.9250   32.1795   51.0512 C   0  0
    3.4275   26.7769   51.8889 C   0  0
    6.6361   27.1073   53.2877 C   0  0
    5.6357   32.7992   52.0715 C   0  0
    5.8872   32.0946   53.2362 C   0  0
    5.7388   30.0793   54.6879 C   0  0
    7.6381   27.6080   54.1164 C   0  0
    6.1218   25.8403   53.5644 C   0  0
    6.5419   25.1302   54.6819 C   0  0
    8.0616   26.9005   55.2345 C   0  0
    7.5059   25.6637   55.5244 C   0  0
    6.1812   27.2089   51.2017 H   0  0
    7.0331   28.5856   51.7865 H   0  0
    4.6177   32.7762   50.2036 H   0  0
    2.3980   26.5596   51.6121 H   0  0
    3.5073   26.6604   52.9697 H   0  0
    4.0765   26.0593   51.3954 H   0  0
    5.9053   33.8437   52.0027 H   0  0
    6.3059   32.6032   54.0888 H   0  0
    6.7752   30.0492   55.0156 H   0  0
    5.3260   29.0711   54.6974 H   0  0
    5.1827   30.6535   55.4300 H   0  0
    8.0948   28.5599   53.8936 H   0  0
    5.4055   25.3712   52.9126 H   0  0
    6.1234   24.1563   54.8854 H   0  0
    8.8260   27.3099   55.8780 H   0  0
    7.8334   25.1122   56.3937 H   0  0
  1  3  1  0
  1  6  1  0
  1  7  1  0
  2  3  2  0
  2  5  1  0
  2 10  1  0
  3 12  1  0
  4  5  1  0
  4  6  2  0
  4 11  1  0
  5  8  2  0
  6  9  1  0
  7 13  1  0
  7 22  1  0
  7 23  1  0
  9 15  2  0
  9 16  1  0
 11 14  2  0
 11 24  1  0
 12 25  1  0
 12 26  1  0
 12 27  1  0
 13 17  2  0
 13 18  1  0
 14 15  1  0
 14 28  1  0
 15 29  1  0
 16 30  1  0
 16 31  1  0
 16 32  1  0
 17 20  1  0
 17 33  1  0
 18 19  2  0
 18 34  1  0
 19 21  1  0
 19 35  1  0
 20 21  2  0
 20 36  1  0
 21 37  1  0
M  END
> <activity>
0

$$$$
ligand_509
  SciTegic10272118463D

 40 42  0  0  1  0            999 V2000
    4.8212   29.3025   51.3146 C   0  0  1  0  0  0
    5.2161   28.1659   52.2227 C   0  0
    6.0463   29.4187   50.3830 C   0  0
    6.7022   28.2593   50.5270 N   0  0
    6.3188   27.5652   51.6610 C   0  0
    3.5777   28.9717   50.4098 N   0  3  2  0  0  0
    6.9342   26.4806   52.2682 C   0  0
    4.7278   27.6841   53.4413 C   0  0
    6.3432   30.3443   49.6293 O   0  0
    6.4184   25.9608   53.4558 C   0  0
    3.2390   30.0868   49.3696 C   0  0
    2.3628   28.5521   51.2767 C   0  0
    5.3107   26.5698   54.0523 C   0  0
    4.5084   30.5300   51.9564 O   0  0
    8.4901   25.7580   51.4885 Br  0  0
    1.1385   28.2582   50.4023 C   0  0
    1.9751   29.7367   48.5687 C   0  0
    0.7740   29.4290   49.4714 C   0  0  2  0  0  0
    4.7399   26.0317   55.3527 C   0  0
    0.2759   30.6698   50.2455 C   0  0
    7.5073   28.0139   49.9704 H   0  0
    3.8245   28.1451   49.8804 H   0  0
    3.9061   28.1580   53.9320 H   0  0
    6.8863   25.1024   53.9169 H   0  0
    3.1373   31.0326   49.9038 H   0  0
    4.0784   30.1580   48.6838 H   0  0
    2.1681   29.3542   51.9864 H   0  0
    2.6614   27.6474   51.8036 H   0  0
    3.9595   30.3503   52.7238 H   0  0
    1.3181   27.3581   49.8122 H   0  0
    0.3058   28.0109   51.0578 H   0  0
    2.1837   28.8786   47.9262 H   0  0
    1.7336   30.5582   47.8920 H   0  0
   -0.0400   29.1013   48.8218 H   0  0
    5.4889   25.4814   55.9239 H   0  0
    3.9075   25.3581   55.1463 H   0  0
    4.3713   26.8420   55.9832 H   0  0
   -0.0772   31.4438   49.5627 H   0  0
    1.0502   31.1166   50.8664 H   0  0
   -0.5539   30.4170   50.9035 H   0  0
  1  2  1  0
  1  3  1  0
  1  6  1  0
  1 14  1  0
  2  5  2  0
  2  8  1  0
  3  4  1  0
  3  9  2  0
  4  5  1  0
  4 21  1  0
  5  7  1  0
  6 11  1  0
  6 12  1  0
  6 22  1  0
  7 10  2  0
  7 15  1  0
  8 13  2  0
  8 23  1  0
 10 13  1  0
 10 24  1  0
 11 17  1  0
 11 25  1  0
 11 26  1  0
 12 16  1  0
 12 27  1  0
 12 28  1  0
 13 19  1  0
 14 29  1  0
 16 18  1  0
 16 30  1  0
 16 31  1  0
 17 18  1  0
 17 32  1  0
 17 33  1  0
 18 20  1  0
 18 34  1  0
 19 35  1  0
 19 36  1  0
 19 37  1  0
 20 38  1  0
 20 39  1  0
 20 40  1  0
M  CHG  1   6   1
M  END
> <activity>
0

$$$$
ligand_510
  SciTegic10272118463D

 24 24  0  0  1  0            999 V2000
    7.6412   26.4420   55.1102 S   0  0
    6.2697   27.3923   54.5389 N   0  0
    6.3768   27.8998   53.1997 N   0  5
    5.3024   27.6824   52.4458 C   0  0
    7.0825   25.6871   56.6324 C   0  0
    7.9045   25.3581   54.1539 O   0  0
    8.7062   27.3754   55.4771 O   0  0
    4.2645   27.0638   52.7133 O   0  0
    5.8150   25.1087   56.6891 C   0  0
    7.9060   25.6995   57.7610 C   0  0
    5.4688   28.2688   51.2405 O   0  0
    6.1920   24.5554   59.0047 C   0  0
    5.3671   24.5529   57.8841 C   0  0
    7.4654   25.1191   58.9477 C   0  0
    5.5508   23.7895   60.6240 Br  0  0
    4.4112   28.3091   50.2905 C   0  0
    5.9963   28.1301   55.1950 H   0  0
    5.1733   25.1058   55.8185 H   0  0
    8.8860   26.1535   57.7182 H   0  0
    4.3782   24.1228   57.9406 H   0  0
    8.1044   25.1205   59.8199 H   0  0
    4.7541   28.7949   49.3766 H   0  0
    3.5630   28.8761   50.6787 H   0  0
    4.0667   27.3079   50.0346 H   0  0
  1  2  1  0
  1  5  1  0
  1  6  2  0
  1  7  2  0
  2  3  1  0
  2 17  1  0
  3  4  1  0
  4  8  2  0
  4 11  1  0
  5  9  2  0
  5 10  1  0
  9 13  1  0
  9 18  1  0
 10 14  2  0
 10 19  1  0
 11 16  1  0
 12 13  2  0
 12 14  1  0
 12 15  1  0
 13 20  1  0
 14 21  1  0
 16 22  1  0
 16 23  1  0
 16 24  1  0
M  CHG  1   3  -1
M  END
> <activity>
0

$$$$
ligand_511
  SciTegic10272118463D

 41 45  0  0  1  0            999 V2000
    6.1775   28.7522   53.0628 C   0  0  2  0  0  0
    6.1794   28.6104   51.5840 N   0  0
    5.3902   27.7269   53.6386 O   0  0
    5.6379   30.1337   53.5522 C   0  0
    5.1947   29.3149   50.8551 C   0  0
    7.6365   28.6427   53.4880 C   0  0
    5.9175   26.9156   54.6490 C   0  0
    4.9577   30.9794   52.6878 C   0  0
    4.5424   30.4445   51.3763 C   0  0
    7.2201   26.9601   55.1266 C   0  0
    5.0626   25.9810   55.1652 C   0  0
    8.0858   27.8677   54.4740 C   0  0
    5.4196   25.2240   56.2838 C   0  0
    7.6365   26.1581   56.1934 C   0  0
    6.7129   25.3093   56.7982 C   0  0
    3.5060   25.7238   54.1514 Br  0  0
    6.6838   27.3085   51.1066 C   0  0
    7.2254   24.2428   58.2886 Br  0  0
    5.9061   30.5927   54.8305 C   0  0
    4.8682   28.9580   49.5516 C   0  0
    4.7060   32.2956   53.0715 C   0  0
    3.4844   31.0341   50.6720 C   0  0
    5.5960   31.8804   55.2408 C   0  0
    3.8263   29.5431   48.8487 C   0  0
    3.1084   30.5718   49.4242 C   0  0
    5.0233   32.7549   54.3390 C   0  0
    8.3057   29.3580   53.0880 H   0  0
    9.1060   27.9603   54.8052 H   0  0
    4.7133   24.5581   56.7458 H   0  0
    8.6478   26.2118   56.5717 H   0  0
    7.4677   26.8847   51.7327 H   0  0
    7.1070   27.3943   50.1063 H   0  0
    5.8705   26.5816   51.0756 H   0  0
    6.4517   29.9435   55.4880 H   0  0
    5.4069   28.1584   49.0880 H   0  0
    4.2196   32.9580   52.3829 H   0  0
    2.9261   31.8584   51.0887 H   0  0
    5.8479   32.2103   56.2377 H   0  0
    3.5753   29.1873   47.8602 H   0  0
    2.2878   31.0316   48.8930 H   0  0
    4.8041   33.7734   54.6241 H   0  0
  1  2  1  0
  1  3  1  0
  1  4  1  0
  1  6  1  0
  2  5  1  0
  2 17  1  0
  3  7  1  0
  4  8  2  0
  4 19  1  0
  5  9  2  0
  5 20  1  0
  6 12  2  0
  6 27  1  0
  7 10  2  0
  7 11  1  0
  8  9  1  0
  8 21  1  0
  9 22  1  0
 10 12  1  0
 10 14  1  0
 11 13  2  0
 11 16  1  0
 12 28  1  0
 13 15  1  0
 13 29  1  0
 14 15  2  0
 14 30  1  0
 15 18  1  0
 17 31  1  0
 17 32  1  0
 17 33  1  0
 19 23  2  0
 19 34  1  0
 20 24  2  0
 20 35  1  0
 21 26  2  0
 21 36  1  0
 22 25  2  0
 22 37  1  0
 23 26  1  0
 23 38  1  0
 24 25  1  0
 24 39  1  0
 25 40  1  0
 26 41  1  0
M  END
> <activity>
0

$$$$
ligand_512
  SciTegic10272118463D

 40 41  0  0  1  0            999 V2000
    5.3168   30.0542   52.5157 C   0  0
    4.7884   30.0987   51.2546 N   0  0
    4.3889   31.1466   50.5093 C   0  0
    5.6914   28.7887   52.8524 N   0  0
    6.3437   26.3712   54.1193 N   0  0
    6.4348   25.2444   54.9419 C   0  0
    3.1392   30.8777   49.7373 C   0  0
    5.5060   31.3392   53.5912 S   0  0
    1.8748   29.4881   48.2127 N   0  0
    2.0365   31.7195   49.8995 C   0  0
    4.6494   27.7625   53.0842 C   0  0
    7.1060   28.4616   53.1134 C   0  0
    7.1424   27.5889   54.3853 C   0  0
    5.3263   26.3717   53.0474 C   0  0
    5.9172   24.1583   54.6881 O   0  0
    4.9161   32.2583   50.4894 O   0  0
    3.0187   29.7724   48.8818 C   0  0
    7.1247   25.5052   56.0813 O   0  0
    0.8564   31.4436   49.2168 C   0  0
   -0.6705   32.5598   49.4221 Br  0  0
    0.8179   30.3203   48.3940 C   0  0
    7.1059   24.5962   57.1722 C   0  0
    7.6988   25.2851   58.4043 C   0  0
    4.3902   29.2197   50.9643 H   0  0
    2.0839   32.5573   50.5789 H   0  0
    3.8410   27.8173   52.3536 H   0  0
    4.2068   27.9384   54.0659 H   0  0
    7.5028   27.9030   52.2634 H   0  0
    7.7282   29.3461   53.2267 H   0  0
    6.6767   28.1299   55.2090 H   0  0
    8.1644   27.3508   54.6840 H   0  0
    4.5914   25.5702   53.1517 H   0  0
    5.8297   26.2173   52.0916 H   0  0
    3.8379   29.0858   48.7173 H   0  0
   -0.0938   30.0648   47.8880 H   0  0
    6.0830   24.2798   57.3865 H   0  0
    7.6760   23.7015   56.9196 H   0  0
    7.7197   24.6074   59.2583 H   0  0
    7.1105   26.1586   58.6845 H   0  0
    8.7205   25.6175   58.2191 H   0  0
  1  2  1  0
  1  4  1  0
  1  8  2  0
  2  3  1  0
  2 24  1  0
  3  7  1  0
  3 16  2  0
  4 11  1  0
  4 12  1  0
  5  6  1  0
  5 13  1  0
  5 14  1  0
  6 15  2  0
  6 18  1  0
  7 10  2  0
  7 17  1  0
  9 17  2  0
  9 21  1  0
 10 19  1  0
 10 25  1  0
 11 14  1  0
 11 26  1  0
 11 27  1  0
 12 13  1  0
 12 28  1  0
 12 29  1  0
 13 30  1  0
 13 31  1  0
 14 32  1  0
 14 33  1  0
 17 34  1  0
 18 22  1  0
 19 20  1  0
 19 21  2  0
 21 35  1  0
 22 23  1  0
 22 36  1  0
 22 37  1  0
 23 38  1  0
 23 39  1  0
 23 40  1  0
M  END
> <activity>
0

$$$$
ligand_513
  SciTegic10272118463D

 33 34  0  0  1  0            999 V2000
    5.1594   30.4927   50.9788 C   0  0  2  0  0  0
    5.2501   29.0432   51.5712 C   0  0  2  0  0  0
    4.1984   30.6071   49.7636 C   0  0
    6.5575   31.0096   50.5489 C   0  0
    3.8297   28.4320   51.7543 C   0  0
    2.8171   30.0078   50.0365 C   0  0  2  0  0  0
    2.9269   28.5556   50.5141 C   0  0  2  0  0  0
    6.0591   29.0034   52.9037 C   0  0
    7.1018   31.8508   51.2970 O   0  0
    1.8308   30.0271   48.2999 Br  0  0
    7.0587   30.5578   49.4898 O   0  5
    1.1061   27.9948   51.0817 Br  0  0
    6.1093   27.6367   53.5795 C   0  0
    7.0756   26.7049   53.2104 C   0  0
    5.1806   27.3057   54.5648 C   0  0
    5.2157   26.0570   55.1704 C   0  0
    7.1125   25.4581   53.8215 C   0  0
    6.1838   25.1332   54.8001 C   0  0
    4.8163   31.1810   51.7545 H   0  0
    5.7714   28.4119   50.8470 H   0  0
    4.6203   30.0835   48.9031 H   0  0
    4.0708   31.6546   49.4885 H   0  0
    3.3474   28.9309   52.5951 H   0  0
    3.8978   27.3788   52.0264 H   0  0
    2.2736   30.6173   50.7612 H   0  0
    3.2712   27.8966   49.7135 H   0  0
    7.0849   29.3340   52.7332 H   0  0
    5.6476   29.7289   53.6076 H   0  0
    7.7923   26.9465   52.4389 H   0  0
    4.4212   28.0165   54.8562 H   0  0
    4.4849   25.8040   55.9248 H   0  0
    7.8542   24.7316   53.5274 H   0  0
    6.2082   24.1596   55.2635 H   0  0
  1  2  1  0
  1  3  1  0
  1  4  1  0
  1 19  1  0
  2  5  1  0
  2  8  1  0
  2 20  1  0
  3  6  1  0
  3 21  1  0
  3 22  1  0
  4  9  2  0
  4 11  1  0
  5  7  1  0
  5 23  1  0
  5 24  1  0
  6  7  1  0
  6 10  1  0
  6 25  1  0
  7 12  1  0
  7 26  1  0
  8 13  1  0
  8 27  1  0
  8 28  1  0
 13 14  2  0
 13 15  1  0
 14 17  1  0
 14 29  1  0
 15 16  2  0
 15 30  1  0
 16 18  1  0
 16 31  1  0
 17 18  2  0
 17 32  1  0
 18 33  1  0
M  CHG  1  11  -1
M  END
> <activity>
0

$$$$
ligand_514
  SciTegic10272118463D

 29 30  0  0  1  0            999 V2000
    6.3634   27.5464   52.0717 C   0  0  1  0  0  0
    7.5168   26.5580   51.7169 C   0  0
    6.4285   28.7843   51.1287 C   0  0
    5.2751   29.7325   51.4898 C   0  0  2  0  0  0
    8.3059   26.1580   52.5705 O   0  0
    7.6677   26.1579   50.4522 N   0  0
    5.4203   31.3099   50.2887 Br  0  0
    5.0117   26.7907   51.8308 C   0  0
    6.5609   28.0385   53.5528 C   0  0
    5.4428   30.2928   52.9228 C   0  0
    3.9163   29.0573   51.1855 C   0  0
    3.7569   27.6910   51.8881 C   0  0
    5.6600   29.2105   54.0000 C   0  0
    7.3768   29.3138   51.2292 H   0  0
    6.3470   28.4986   50.0782 H   0  0
    8.4244   25.5271   50.2269 H   0  0
    7.1018   26.5364   49.7139 H   0  0
    4.8979   25.9658   52.5378 H   0  0
    5.0084   26.3212   50.8431 H   0  0
    6.4397   27.2107   54.2534 H   0  0
    7.5912   28.3780   53.6833 H   0  0
    4.5920   30.9222   53.1859 H   0  0
    6.3060   30.9569   52.9347 H   0  0
    3.0897   29.7178   51.4522 H   0  0
    3.8345   28.8963   50.1098 H   0  0
    3.5063   27.8598   52.9310 H   0  0
    2.8975   27.1569   51.4829 H   0  0
    4.7052   28.8234   54.3405 H   0  0
    6.0860   29.6737   54.8916 H   0  0
  1  2  1  0
  1  3  1  0
  1  8  1  0
  1  9  1  0
  2  5  2  0
  2  6  1  0
  3  4  1  0
  3 14  1  0
  3 15  1  0
  4  7  1  0
  4 10  1  0
  4 11  1  0
  6 16  1  0
  6 17  1  0
  8 12  1  0
  8 18  1  0
  8 19  1  0
  9 13  1  0
  9 20  1  0
  9 21  1  0
 10 13  1  0
 10 22  1  0
 10 23  1  0
 11 12  1  0
 11 24  1  0
 11 25  1  0
 12 26  1  0
 12 27  1  0
 13 28  1  0
 13 29  1  0
M  END
> <activity>
0

$$$$
ligand_515
  SciTegic10272118463D

 64 67  0  0  1  0            999 V2000
    5.2878   29.6253   51.4432 C   0  0
   -3.7532   35.3556   51.9430 C   0  0
   -4.7294   36.2738   52.5610 N   0  3
    3.4693   30.2928   50.0247 N   0  0
    2.5456   30.4437   49.0112 C   0  0
    4.7634   29.8915   50.0584 C   0  0
   -3.0708   35.6939   50.7602 C   0  0
    1.4285   31.1839   49.3545 N   0  0
   -2.1687   34.7706   50.2296 C   0  0
    5.9315   28.4104   51.7551 C   0  0
   -1.0073   32.6429   50.2502 N   0  0
   -3.3177   36.8887   50.0915 N   0  0
   -1.9242   33.5290   50.8245 C   0  0
    6.4551   28.2070   53.0433 C   0  0
   -3.5227   34.1185   52.5526 C   0  0
    5.1537   30.6067   52.4351 C   0  0
    2.7060   29.7584   47.4880 S   0  0
   -5.8262   35.8119   52.8635 O   0  5
   -4.3933   37.4358   52.7656 O   0  0
    5.5059   29.7569   49.0882 O   0  0
    6.3036   29.1971   54.0158 C   0  0
    0.4785   31.7323   48.3511 C   0  0
    1.1073   31.4142   50.7729 C   0  0
   -0.3387   32.9003   48.9582 C   0  0
   -0.4189   31.4991   50.9627 C   0  0
    5.6570   30.3928   53.7148 C   0  0
   -2.6222   33.2162   51.9978 C   0  0
   -3.2039   37.3786   47.2423 O   0  0
    6.0518   27.4155   50.8119 O   0  0
    5.5060   31.7577   55.0356 Br  0  0
   -4.5238   37.0112   49.2656 C   0  0
   -2.2656   37.7293   49.4991 C   0  0
    7.1885   26.9216   53.4003 C   0  0
   -4.2439   36.5827   47.8076 C   0  0
   -2.0003   37.4083   48.0060 C   0  0
    4.9788   26.4819   50.8274 C   0  0
    3.0825   30.4255   50.9453 H   0  0
   -1.6475   35.0229   49.3278 H   0  0
   -4.0512   33.8518   53.4579 H   0  0
    4.6768   31.5535   52.2213 H   0  0
    6.7073   29.0534   55.0069 H   0  0
   -0.1791   30.9301   48.0196 H   0  0
    1.0083   32.1005   47.4718 H   0  0
    1.4700   30.6052   51.4128 H   0  0
    1.5836   32.3440   51.0888 H   0  0
    0.3057   33.7690   49.0871 H   0  0
   -1.0953   33.1753   48.2225 H   0  0
   -0.5894   31.6047   52.0293 H   0  0
   -0.8946   30.5607   50.6880 H   0  0
   -2.4968   32.2659   52.4928 H   0  0
   -4.8771   38.0436   49.2807 H   0  0
   -5.3356   36.4176   49.6884 H   0  0
   -2.5588   38.7766   49.5871 H   0  0
   -1.3465   37.6382   50.0791 H   0  0
    7.7520   26.5403   52.5489 H   0  0
    6.4775   26.1576   53.7094 H   0  0
    7.8939   27.0800   54.2154 H   0  0
   -5.1437   36.7110   47.2059 H   0  0
   -3.9897   35.5225   47.7541 H   0  0
   -1.3367   38.1591   47.5803 H   0  0
   -1.4601   36.4727   47.8876 H   0  0
    4.0178   26.9752   50.6703 H   0  0
    5.1096   25.7574   50.0249 H   0  0
    4.9342   25.9275   51.7661 H   0  0
  1  6  1  0
  1 10  2  0
  1 16  1  0
  2  3  1  0
  2  7  2  0
  2 15  1  0
  3 18  1  0
  3 19  2  0
  4  5  1  0
  4  6  1  0
  4 37  1  0
  5  8  1  0
  5 17  2  0
  6 20  2  0
  7  9  1  0
  7 12  1  0
  8 22  1  0
  8 23  1  0
  9 13  2  0
  9 38  1  0
 10 14  1  0
 10 29  1  0
 11 13  1  0
 11 24  1  0
 11 25  1  0
 12 31  1  0
 12 32  1  0
 13 27  1  0
 14 21  2  0
 14 33  1  0
 15 27  2  0
 15 39  1  0
 16 26  2  0
 16 40  1  0
 21 26  1  0
 21 41  1  0
 22 24  1  0
 22 42  1  0
 22 43  1  0
 23 25  1  0
 23 44  1  0
 23 45  1  0
 24 46  1  0
 24 47  1  0
 25 48  1  0
 25 49  1  0
 26 30  1  0
 27 50  1  0
 28 34  1  0
 28 35  1  0
 29 36  1  0
 31 34  1  0
 31 51  1  0
 31 52  1  0
 32 35  1  0
 32 53  1  0
 32 54  1  0
 33 55  1  0
 33 56  1  0
 33 57  1  0
 34 58  1  0
 34 59  1  0
 35 60  1  0
 35 61  1  0
 36 62  1  0
 36 63  1  0
 36 64  1  0
M  CHG  2   3   1  18  -1
M  END
> <activity>
0

$$$$
ligand_516
  SciTegic10272118463D

 44 46  0  0  1  0            999 V2000
    4.5616   33.1567   58.0225 S   0  0
    5.2152   32.3977   56.6010 N   0  0
    4.6825   32.8730   55.5538 C   0  0
    3.6111   33.8889   55.7765 C   0  0
    3.3789   34.1222   57.1187 C   0  0
    0.4123   36.4414   57.1478 N   0  3
    2.3656   34.9574   57.6049 C   0  0
    6.1322   29.0659   52.7204 C   0  0
    1.5060   35.5630   56.6788 C   0  0
    5.1060   32.3705   54.2700 N   0  0
    5.5062   30.9910   54.1030 N   0  0
    6.0933   28.4827   51.4337 C   0  0
    6.7059   27.2412   51.1839 C   0  0
    3.9060   32.1581   58.8594 O   0  0
    5.5955   33.9976   58.6148 O   0  0
    2.7838   34.5580   54.8663 C   0  0
    5.5800   30.4158   52.9585 C   0  0
    7.3192   26.5580   52.2418 C   0  0
    0.4839   36.8901   58.2895 O   0  5
   -0.5053   36.6951   56.3740 O   0  0
    6.7491   28.3469   53.7563 C   0  0
    7.3407   27.1082   53.5195 C   0  0
    1.7246   35.3577   55.3077 C   0  0
    6.6771   26.7483   49.8913 O   0  0
    8.2110   26.1793   54.9350 Br  0  0
    5.4966   29.1459   50.3835 O   0  0
    5.0184   33.2283   53.0880 C   0  0
    7.7582   25.9395   49.4409 C   0  0
    4.1747   28.7031   50.0937 C   0  0
    2.2155   35.0935   58.6662 H   0  0
    2.8880   34.4462   53.8003 H   0  0
    5.2427   30.9145   52.0548 H   0  0
    7.7812   25.5977   52.0821 H   0  0
    6.7980   28.7591   54.7551 H   0  0
    1.0851   35.8329   54.5765 H   0  0
    5.0201   34.2890   53.3428 H   0  0
    4.1278   32.9580   52.5182 H   0  0
    5.8875   33.0862   52.4443 H   0  0
    7.6367   25.7578   48.3742 H   0  0
    7.8097   24.9673   49.9324 H   0  0
    8.7060   26.4566   49.5739 H   0  0
    4.1314   27.6323   49.8881 H   0  0
    3.8039   29.2227   49.2105 H   0  0
    3.4955   28.9221   50.9190 H   0  0
  1  2  1  0
  1  5  1  0
  1 14  2  0
  1 15  2  0
  2  3  2  0
  3  4  1  0
  3 10  1  0
  4  5  1  0
  4 16  2  0
  5  7  2  0
  6  9  1  0
  6 19  1  0
  6 20  2  0
  7  9  1  0
  7 30  1  0
  8 12  2  0
  8 17  1  0
  8 21  1  0
  9 23  2  0
 10 11  1  0
 10 27  1  0
 11 17  2  0
 12 13  1  0
 12 26  1  0
 13 18  2  0
 13 24  1  0
 16 23  1  0
 16 31  1  0
 17 32  1  0
 18 22  1  0
 18 33  1  0
 21 22  2  0
 21 34  1  0
 22 25  1  0
 23 35  1  0
 24 28  1  0
 26 29  1  0
 27 36  1  0
 27 37  1  0
 27 38  1  0
 28 39  1  0
 28 40  1  0
 28 41  1  0
 29 42  1  0
 29 43  1  0
 29 44  1  0
M  CHG  2   6   1  19  -1
M  END
> <activity>
0

$$$$
ligand_517
  SciTegic10272118463D

 41 46  0  0  1  0            999 V2000
    2.3953   29.4424   50.4952 C   0  0
    3.4930   30.2353   50.5383 C   0  0
    1.2992   29.9786   49.9186 N   0  0
    4.8961   29.8489   51.1049 C   0  0  2  0  0  0
    2.2280   27.7791   51.0880 S   0  0
    3.8023   27.6731   52.0094 C   0  0  2  0  0  0
    6.6086   26.8620   52.7408 C   0  0  2  0  0  0
    4.9086   28.2669   51.1320 C   0  0  2  0  0  0
    7.2536   28.0003   53.5120 C   0  0
    6.0744   27.2273   51.3101 C   0  0  2  0  0  0
    4.3376   26.2534   52.3692 C   0  0  2  0  0  0
    5.4114   26.1817   53.4742 C   0  0  2  0  0  0
    5.2078   30.5646   52.4460 C   0  0
    1.4078   31.2468   49.4014 C   0  0
    3.1100   31.7579   49.7326 S   0  0
    7.0479   29.1574   52.9340 O   0  0
    6.0564   29.9861   53.3916 C   0  0
    5.2305   25.9595   51.1440 C   0  0
    5.0022   26.5289   54.9221 C   0  0
    4.7053   31.8386   52.7550 C   0  0
    7.9444   27.8105   54.5129 O   0  0
    0.5492   31.9135   48.8300 O   0  0
    4.3342   27.5686   55.0883 O   0  0
    6.0891   30.4614   54.7059 C   0  0
    4.8936   32.3958   54.0181 C   0  0
    5.3945   25.7675   55.8332 O   0  5
    5.5086   31.6741   55.0228 C   0  0
    4.3061   34.1543   54.4091 Br  0  0
    0.4306   29.4694   49.8532 H   0  0
    5.6737   30.1827   50.4166 H   0  0
    3.6395   28.2700   52.9044 H   0  0
    7.4055   26.1251   52.6316 H   0  0
    4.6710   28.0774   50.0790 H   0  0
    6.8623   27.3218   50.5613 H   0  0
    3.5469   25.5746   52.6880 H   0  0
    5.6801   25.1243   53.5503 H   0  0
    4.7098   25.8989   50.1910 H   0  0
    5.8174   25.0430   51.2156 H   0  0
    4.1466   32.4184   52.0429 H   0  0
    6.6952   29.9909   55.4755 H   0  0
    5.6139   32.0872   56.0145 H   0  0
  1  2  2  0
  1  3  1  0
  1  5  1  0
  2  4  1  0
  2 15  1  0
  3 14  1  0
  3 29  1  0
  4  8  1  0
  4 13  1  0
  4 30  1  0
  5  6  1  0
  6  8  1  0
  6 11  1  0
  6 31  1  0
  7  9  1  0
  7 10  1  0
  7 12  1  0
  7 32  1  0
  8 10  1  0
  8 33  1  0
  9 16  1  0
  9 21  2  0
 10 18  1  0
 10 34  1  0
 11 12  1  0
 11 18  1  0
 11 35  1  0
 12 19  1  0
 12 36  1  0
 13 17  2  0
 13 20  1  0
 14 15  1  0
 14 22  2  0
 16 17  1  0
 17 24  1  0
 18 37  1  0
 18 38  1  0
 19 23  2  0
 19 26  1  0
 20 25  2  0
 20 39  1  0
 24 27  2  0
 24 40  1  0
 25 27  1  0
 25 28  1  0
 27 41  1  0
M  CHG  1  26  -1
M  END
> <activity>
0

$$$$
ligand_518
  SciTegic10272118463D

 49 52  0  0  1  0            999 V2000
   -0.9201   33.2188   50.3635 N   0  0
   -0.0577   32.5527   49.5078 C   0  0
   -0.5583   32.4330   48.2903 N   0  0
   -1.7744   32.9618   48.3242 C   0  0
   -2.0270   33.4744   49.5874 C   0  0
   -0.7508   33.4457   51.7209 N   0  0
    1.1561   32.1475   49.9828 N   0  0
    2.9065   30.4861   50.1832 C   0  0
    4.5060   28.6990   50.6481 C   0  0
    3.2545   29.1143   50.1634 C   0  0
    1.5939   30.9779   49.7090 C   0  0
   -0.9966   34.5824   52.2584 C   0  0
    5.4198   29.6343   51.1294 C   0  0
    3.8485   31.4018   50.6873 C   0  0
    5.0943   30.9852   51.1459 C   0  0
   -2.6920   32.9580   47.1404 C   0  0
   -0.9905   34.6861   53.7282 C   0  0
    5.0065   26.8585   50.6880 Br  0  0
    2.3752   28.1615   49.6966 O   0  0
    6.3470   32.2646   51.7941 Br  0  0
   -1.3193   35.8800   51.5051 C   0  0
   -3.7542   33.8598   47.0803 C   0  0
   -2.4941   32.0921   46.0649 C   0  0
   -0.2780   35.6898   54.3913 C   0  0
   -1.6950   33.7592   54.5044 C   0  0
   -1.6881   33.8318   55.8915 C   0  0
   -0.2691   35.7634   55.7788 C   0  0
   -3.3324   32.1238   44.9583 C   0  0
   -4.5966   33.8925   45.9761 C   0  0
   -4.3853   33.0262   44.9127 C   0  0
   -0.9748   34.8352   56.5304 C   0  0
   -2.8933   33.9601   50.0089 H   0  0
    1.0109   30.2670   49.1265 H   0  0
    6.3823   29.3100   51.4975 H   0  0
    3.6250   32.4597   50.7194 H   0  0
    2.7099   27.2537   49.7188 H   0  0
   -1.1032   35.8231   50.4393 H   0  0
   -0.7336   36.7200   51.8750 H   0  0
   -2.3717   36.1391   51.6187 H   0  0
   -3.9345   34.5546   47.8880 H   0  0
   -1.6940   31.3718   46.0921 H   0  0
    0.2947   36.4204   53.8390 H   0  0
   -2.2563   32.9653   54.0318 H   0  0
   -2.2378   33.1056   56.4731 H   0  0
    0.2899   36.5443   56.2730 H   0  0
   -3.1640   31.4465   44.1346 H   0  0
   -5.4152   34.5970   45.9461 H   0  0
   -5.0389   33.0564   44.0532 H   0  0
   -0.9687   34.8905   57.6095 H   0  0
  1  2  1  0
  1  5  1  0
  1  6  1  0
  2  3  2  0
  2  7  1  0
  3  4  1  0
  4  5  2  0
  4 16  1  0
  5 32  1  0
  6 12  2  0
  7 11  2  0
  8 10  1  0
  8 11  1  0
  8 14  2  0
  9 10  2  0
  9 13  1  0
  9 18  1  0
 10 19  1  0
 11 33  1  0
 12 17  1  0
 12 21  1  0
 13 15  2  0
 13 34  1  0
 14 15  1  0
 14 35  1  0
 15 20  1  0
 16 22  2  0
 16 23  1  0
 17 24  2  0
 17 25  1  0
 19 36  1  0
 21 37  1  0
 21 38  1  0
 21 39  1  0
 22 29  1  0
 22 40  1  0
 23 28  2  0
 23 41  1  0
 24 27  1  0
 24 42  1  0
 25 26  2  0
 25 43  1  0
 26 31  1  0
 26 44  1  0
 27 31  2  0
 27 45  1  0
 28 30  1  0
 28 46  1  0
 29 30  2  0
 29 47  1  0
 30 48  1  0
 31 49  1  0
M  END
> <activity>
0

$$$$
ligand_519
  SciTegic10272118463D

 21 22  0  0  1  0            999 V2000
    5.5180   29.8501   53.1525 C   0  0
    6.0106   29.4614   51.9233 C   0  0
    5.5057   31.1726   53.5559 N   0  0
    6.4761   31.7137   51.5059 N   0  0
    5.9060   32.1637   52.6939 C   0  0
    6.5622   30.4270   50.9885 C   0  0
    5.1059   28.7058   53.7766 N   0  0
    5.9090   28.1468   51.7646 N   0  0
    5.3484   27.7050   52.8715 C   0  0
    5.8057   33.3583   52.9941 O   0  0
    7.0510   30.1591   49.8885 O   0  0
    5.1065   31.5393   54.9212 C   0  0
    4.8777   25.8973   53.2389 Br  0  0
    7.1058   32.7834   50.6991 C   0  0
    4.6556   28.6232   54.6769 H   0  0
    4.7104   30.6911   55.4795 H   0  0
    4.3312   32.3079   54.9032 H   0  0
    5.9607   31.9362   55.4728 H   0  0
    7.9804   33.1753   51.2207 H   0  0
    6.4134   33.6144   50.5526 H   0  0
    7.4369   32.4730   49.7064 H   0  0
  1  2  2  0
  1  3  1  0
  1  7  1  0
  2  6  1  0
  2  8  1  0
  3  5  1  0
  3 12  1  0
  4  5  1  0
  4  6  1  0
  4 14  1  0
  5 10  2  0
  6 11  2  0
  7  9  1  0
  7 15  1  0
  8  9  2  0
  9 13  1  0
 12 16  1  0
 12 17  1  0
 12 18  1  0
 14 19  1  0
 14 20  1  0
 14 21  1  0
M  END
> <activity>
0

$$$$
ligand_520
  SciTegic10272118463D

 22 23  0  0  1  0            999 V2000
    6.6965   27.9571   52.2163 N   0  0
    5.9094   28.8951   51.4769 C   0  0
    5.9122   30.3432   51.8941 C   0  0
    7.1614   26.7129   51.8246 C   0  0
    7.8922   26.1574   52.7573 N   0  0
    7.9060   27.0235   53.8433 N   0  0
    7.2222   28.0792   53.4879 C   0  0
    6.4378   31.3410   51.0527 C   0  0
    5.3949   30.7172   53.1381 C   0  0
    5.2617   28.5442   50.4899 O   0  0
    6.9590   26.1578   50.5948 N   0  0
    6.4332   32.6769   51.4524 C   0  0
    5.4008   32.0528   53.5319 C   0  0
    7.1059   30.9741   49.4954 Cl  0  0
    5.9065   33.0350   52.6877 C   0  0
    4.7250   32.5395   55.2435 Br  0  0
    7.0635   28.9569   54.0955 H   0  0
    4.9910   29.9754   53.8115 H   0  0
    6.0273   25.8760   50.3317 H   0  0
    7.7145   25.6731   50.1296 H   0  0
    6.8429   33.4376   50.8048 H   0  0
    5.9062   34.0693   52.9986 H   0  0
  1  2  1  0
  1  4  1  0
  1  7  1  0
  2  3  1  0
  2 10  2  0
  3  8  2  0
  3  9  1  0
  4  5  2  0
  4 11  1  0
  5  6  1  0
  6  7  2  0
  7 17  1  0
  8 12  1  0
  8 14  1  0
  9 13  2  0
  9 18  1  0
 11 19  1  0
 11 20  1  0
 12 15  2  0
 12 21  1  0
 13 15  1  0
 13 16  1  0
 15 22  1  0
M  END
> <activity>
0

$$$$
ligand_521
  SciTegic10272118463D

 36 39  0  0  1  0            999 V2000
    5.8991   28.3824   52.8248 C   0  0
    6.2124   29.3949   53.7349 N   0  0
    7.4139   27.5898   54.4115 N   0  0
    7.0831   28.8219   54.6476 C   0  0
    6.7070   27.2898   53.2892 C   0  0
    5.0882   28.1737   51.6730 C   0  0
    6.7698   26.1112   52.6799 N   0  0
    5.8510   30.7548   53.7733 C   0  0
    5.1628   26.9491   51.0796 N   0  0
    4.1639   29.1399   50.9702 C   0  0
    5.9825   26.0092   51.5908 C   0  0
    5.9071   31.5362   52.6182 C   0  0
    5.4608   31.3311   54.9847 C   0  0
    3.8990   28.9944   49.6022 C   0  0
    3.5050   30.1804   51.6228 C   0  0
    2.4860   30.9310   49.5742 C   0  0
    2.7085   31.0939   50.9360 C   0  0
    3.0723   29.8674   48.9011 C   0  0
    5.0950   32.6625   55.0482 C   0  0
    5.5277   32.8708   52.6773 C   0  0
    5.1160   33.4245   53.8893 C   0  0
    1.3610   32.1412   48.6313 Br  0  0
    4.7058   34.8677   53.9590 C   0  0
    7.4892   29.4160   55.4552 H   0  0
    5.9956   25.0561   51.0877 H   0  0
    6.2295   31.1117   51.6773 H   0  0
    5.4105   30.7565   55.8835 H   0  0
    4.3281   28.1606   49.0877 H   0  0
    3.6087   30.3020   52.6866 H   0  0
    2.2565   31.9153   51.4711 H   0  0
    2.8870   29.7158   47.8459 H   0  0
    4.7790   33.0903   55.9879 H   0  0
    5.5557   33.4661   51.7777 H   0  0
    5.1055   35.3710   53.0896 H   0  0
    5.1100   35.3504   54.8460 H   0  0
    3.6203   34.9560   53.9640 H   0  0
  1  2  1  0
  1  5  2  0
  1  6  1  0
  2  4  1  0
  2  8  1  0
  3  4  2  0
  3  5  1  0
  4 24  1  0
  5  7  1  0
  6  9  2  0
  6 10  1  0
  7 11  2  0
  8 12  2  0
  8 13  1  0
  9 11  1  0
 10 14  2  0
 10 15  1  0
 11 25  1  0
 12 20  1  0
 12 26  1  0
 13 19  2  0
 13 27  1  0
 14 18  1  0
 14 28  1  0
 15 17  2  0
 15 29  1  0
 16 17  1  0
 16 18  2  0
 16 22  1  0
 17 30  1  0
 18 31  1  0
 19 21  1  0
 19 32  1  0
 20 21  2  0
 20 33  1  0
 21 23  1  0
 23 34  1  0
 23 35  1  0
 23 36  1  0
M  END
> <activity>
0

$$$$
ligand_522
  SciTegic10272118463D

 30 32  0  0  1  0            999 V2000
    4.5693   28.6639   51.1244 N   0  0
    3.5410   30.6554   50.7663 C   0  0
    4.3578   30.7831   51.9006 C   0  0
    3.6938   29.3301   50.2746 C   0  0
    4.9633   29.5216   52.1413 C   0  0
    5.7783   29.3004   53.2621 C   0  0
    3.0016   28.8893   49.1370 C   0  0
    2.6543   31.5373   50.1250 C   0  0
    4.6015   31.8440   52.7899 C   0  0
    5.0450   27.3120   50.9584 C   0  0
    6.8667   26.1431   50.1565 C   0  0
    7.6962   25.8413   49.1494 C   0  0
    5.3352   31.5949   53.9483 C   0  0
    1.9128   31.0620   49.0436 C   0  0
    5.9060   30.3467   54.1747 C   0  0
    2.1026   29.7759   48.5488 C   0  0
    6.2655   27.3437   50.2880 O   0  0
    5.4875   32.9475   55.2798 Br  0  0
    0.5738   32.1579   48.2640 Br  0  0
    6.2389   28.3430   53.4568 H   0  0
    3.1059   27.8855   48.7500 H   0  0
    2.5067   32.5480   50.4872 H   0  0
    4.1416   32.8100   52.6438 H   0  0
    5.1496   26.8746   51.9534 H   0  0
    4.3084   26.7571   50.3748 H   0  0
    6.6376   25.4373   50.9458 H   0  0
    7.9180   26.5573   48.3722 H   0  0
    8.1705   24.8728   49.0886 H   0  0
    6.4695   30.1871   55.0833 H   0  0
    1.5185   29.4464   47.7022 H   0  0
  1  4  1  0
  1  5  1  0
  1 10  1  0
  2  3  1  0
  2  4  2  0
  2  8  1  0
  3  5  2  0
  3  9  1  0
  4  7  1  0
  5  6  1  0
  6 15  2  0
  6 20  1  0
  7 16  2  0
  7 21  1  0
  8 14  2  0
  8 22  1  0
  9 13  2  0
  9 23  1  0
 10 17  1  0
 10 24  1  0
 10 25  1  0
 11 12  2  0
 11 17  1  0
 11 26  1  0
 12 27  1  0
 12 28  1  0
 13 15  1  0
 13 18  1  0
 14 16  1  0
 14 19  1  0
 15 29  1  0
 16 30  1  0
M  END
> <activity>
0

$$$$
ligand_523
  SciTegic10272118463D

 15 15  0  0  1  0            999 V2000
    6.7502   24.7383   58.2909 C   0  0
    5.5241   24.1584   58.2809 N   0  0
    7.3846   25.1241   59.4808 C   0  0
    8.6320   25.6953   59.4881 O   0  0
    6.1841   25.7599   55.5855 Br  0  0
    7.3948   24.9031   56.9222 C   0  0
    4.9011   23.9791   59.4661 C   0  0
    6.7217   24.9282   60.6919 C   0  0
    5.4524   24.3502   60.6876 C   0  0
    8.9950   25.8386   60.3694 H   0  0
    8.2936   25.5177   56.9719 H   0  0
    7.6609   23.9224   56.5363 H   0  0
    3.9196   23.5311   59.4250 H   0  0
    7.1770   25.2261   61.6257 H   0  0
    4.8942   24.1987   61.6015 H   0  0
  1  2  2  0
  1  3  1  0
  1  6  1  0
  2  7  1  0
  3  4  1  0
  3  8  2  0
  4 10  1  0
  5  6  1  0
  6 11  1  0
  6 12  1  0
  7  9  2  0
  7 13  1  0
  8  9  1  0
  8 14  1  0
  9 15  1  0
M  END
> <activity>
0

$$$$
ligand_524
  SciTegic10272118463D

 22 23  0  0  1  0            999 V2000
    5.9191   26.1904   53.4821 N   0  0
    4.7060   26.5580   51.6435 N   0  0
    6.0417   26.7811   51.3309 N   0  0
    6.7092   24.6175   59.6833 C   0  0
    6.7199   26.5674   52.4298 C   0  0
    4.6631   26.2054   52.9039 C   0  0
    5.4845   24.1580   59.1984 C   0  0
    7.5347   25.3580   58.8391 C   0  0
    6.3598   25.9162   54.7632 N   0  0
    7.1881   25.5800   57.5125 C   0  0
    5.1060   24.4565   57.8880 C   0  0
    5.9596   25.1398   57.0113 C   0  0
    5.5612   25.4097   55.6225 C   0  0
    9.1060   26.1767   59.4880 Br  0  0
    4.3060   23.1509   60.3064 Br  0  0
    7.0937   24.3790   60.9778 O   0  0
    7.7862   26.6630   52.5610 H   0  0
    3.7775   25.9656   53.4718 H   0  0
    7.8658   26.1499   56.8918 H   0  0
    4.1236   24.1580   57.5631 H   0  0
    4.5355   25.1447   55.3819 H   0  0
    7.8656   24.8969   61.2212 H   0  0
  1  5  1  0
  1  6  1  0
  1  9  1  0
  2  3  1  0
  2  6  2  0
  3  5  2  0
  4  7  2  0
  4  8  1  0
  4 16  1  0
  5 17  1  0
  6 18  1  0
  7 11  1  0
  7 15  1  0
  8 10  2  0
  8 14  1  0
  9 13  2  0
 10 12  1  0
 10 19  1  0
 11 12  2  0
 11 20  1  0
 12 13  1  0
 13 21  1  0
 16 22  1  0
M  END
> <activity>
0

$$$$
ligand_525
  SciTegic10272118463D

 32 35  0  0  1  0            999 V2000
    6.9256   26.0691   52.4358 C   0  0
    7.9060   26.1261   53.3000 N   0  0
    7.3357   25.8034   54.5092 N   0  0
    5.7594   25.7580   52.9493 N   0  5
    6.0010   25.5754   54.2917 N   0  0
    6.0959   28.4661   50.7143 C   0  0
    6.7006   27.4197   50.2880 N   0  0
    5.6509   31.2991   51.5264 C   0  0  1  0  0  0
    5.7503   28.8779   52.1742 C   0  0  1  0  0  0
    5.5060   29.5214   49.7325 C   0  0  2  0  0  0
    7.1308   26.3269   51.0965 N   0  0
    6.3060   30.2873   52.4601 C   0  0
    6.0630   30.9307   50.1008 C   0  0
    3.5622   29.8815   51.3491 C   0  0  2  0  0  0
    4.2086   28.8239   52.2880 C   0  0
    3.9560   29.5166   49.8918 C   0  0
    4.1102   31.2980   51.6888 C   0  0
    6.3649   33.1121   51.9182 Br  0  0
    6.2033   28.2712   52.9400 H   0  0
    5.7641   29.2738   48.7031 H   0  0
    7.5631   25.6007   50.5486 H   0  0
    6.1368   30.5609   53.5027 H   0  0
    7.3842   30.2839   52.2880 H   0  0
    7.1468   30.9754   49.9741 H   0  0
    5.6472   31.7154   49.4880 H   0  0
    2.4772   29.8628   51.4609 H   0  0
    3.9224   28.9683   53.3238 H   0  0
    3.8379   27.8254   52.0445 H   0  0
    3.5068   30.2261   49.1952 H   0  0
    3.5477   28.5399   49.6211 H   0  0
    3.8455   31.5732   52.7089 H   0  0
    3.6564   32.0480   51.0394 H   0  0
  1  2  2  0
  1  4  1  0
  1 11  1  0
  2  3  1  0
  3  5  2  0
  4  5  1  0
  6  7  2  0
  6  9  1  0
  6 10  1  0
  7 11  1  0
  8 12  1  0
  8 13  1  0
  8 17  1  0
  8 18  1  0
  9 12  1  0
  9 15  1  0
  9 19  1  0
 10 13  1  0
 10 16  1  0
 10 20  1  0
 11 21  1  0
 12 22  1  0
 12 23  1  0
 13 24  1  0
 13 25  1  0
 14 15  1  0
 14 16  1  0
 14 17  1  0
 14 26  1  0
 15 27  1  0
 15 28  1  0
 16 29  1  0
 16 30  1  0
 17 31  1  0
 17 32  1  0
M  CHG  1   4  -1
M  END
> <activity>
0

$$$$
ligand_526
  SciTegic10272118463D

 39 40  0  0  1  0            999 V2000
    4.7264   30.1350   50.3205 S   0  0
    3.0959   29.6333   50.5503 N   0  0
    5.6200   29.3950   51.6969 C   0  0
    1.9098   30.3112   50.3277 C   0  0
    6.3078   28.1954   51.4779 C   0  0
    5.6199   29.9862   52.9679 C   0  0
    0.8679   29.5424   50.5664 N   0  0
    2.7266   28.3533   50.8770 C   0  0
    6.3059   29.3367   54.0053 C   0  0
    5.1652   29.4725   49.0880 O   0  0
    4.7677   31.5961   50.4451 O   0  0
    7.0349   27.5771   52.5068 C   0  0
    7.0156   28.1584   53.7767 C   0  0
    1.3488   28.3558   50.8803 C   0  0
    1.7809   31.7368   49.7837 C   0  0
    7.9953   27.3745   55.2130 Br  0  0
    4.9478   31.1814   53.1390 O   0  0
    7.8066   26.4425   52.3383 O   0  0
    2.1316   31.7802   48.2835 C   0  0
    0.3815   32.3507   50.0239 C   0  0
    5.1060   31.9098   54.3520 C   0  0
    7.9124   25.8513   51.0483 C   0  0
    6.2886   27.7619   50.4905 H   0  0
    3.4529   27.5745   51.0611 H   0  0
    6.3333   29.7569   54.9969 H   0  0
    0.7064   27.5121   51.0897 H   0  0
    2.4797   32.3805   50.3157 H   0  0
    3.1058   31.3332   48.0910 H   0  0
    2.1625   32.8038   47.9089 H   0  0
    1.4030   31.2287   47.6879 H   0  0
    0.1537   32.4103   51.0880 H   0  0
   -0.4029   31.7586   49.5524 H   0  0
    0.3058   33.3580   49.6163 H   0  0
    4.5604   32.8503   54.2783 H   0  0
    6.1531   32.1525   54.5408 H   0  0
    4.7048   31.3617   55.2056 H   0  0
    8.7060   25.1088   51.0880 H   0  0
    8.1980   26.5579   50.2704 H   0  0
    6.9833   25.3585   50.7588 H   0  0
  1  2  1  0
  1  3  1  0
  1 10  2  0
  1 11  2  0
  2  4  1  0
  2  8  1  0
  3  5  2  0
  3  6  1  0
  4  7  2  0
  4 15  1  0
  5 12  1  0
  5 23  1  0
  6  9  2  0
  6 17  1  0
  7 14  1  0
  8 14  2  0
  8 24  1  0
  9 13  1  0
  9 25  1  0
 12 13  2  0
 12 18  1  0
 13 16  1  0
 14 26  1  0
 15 19  1  0
 15 20  1  0
 15 27  1  0
 17 21  1  0
 18 22  1  0
 19 28  1  0
 19 29  1  0
 19 30  1  0
 20 31  1  0
 20 32  1  0
 20 33  1  0
 21 34  1  0
 21 35  1  0
 21 36  1  0
 22 37  1  0
 22 38  1  0
 22 39  1  0
M  END
> <activity>
0

$$$$
ligand_527
  SciTegic10272118463D

 19 20  0  0  1  0            999 V2000
    5.2321   28.4872   51.0426 N   0  3
    4.3936   30.7092   50.6880 C   0  0
    4.0591   27.9437   50.6888 C   0  0
    5.4639   29.8514   51.0752 C   0  0
    2.9946   28.7506   50.3217 C   0  0
    3.1426   30.1388   50.3099 C   0  0
    6.1628   27.6888   51.3423 O   0  5
    1.6717   31.2457   49.7880 Br  0  0
    1.8162   28.1580   49.9594 O   0  0
    4.6423   32.1051   50.6999 C   0  0
    6.7060   30.4045   51.4750 C   0  0
    5.8747   32.6240   51.0887 C   0  0
    6.9005   31.7792   51.4792 C   0  0
    4.0193   26.8652   50.7047 H   0  0
    1.9062   27.2022   49.8622 H   0  0
    3.8567   32.7831   50.4089 H   0  0
    7.5060   29.7513   51.7841 H   0  0
    6.0348   33.6919   51.0959 H   0  0
    7.8526   32.1909   51.7836 H   0  0
  1  3  2  0
  1  4  1  0
  1  7  1  0
  2  4  2  0
  2  6  1  0
  2 10  1  0
  3  5  1  0
  3 14  1  0
  4 11  1  0
  5  6  2  0
  5  9  1  0
  6  8  1  0
  9 15  1  0
 10 12  2  0
 10 16  1  0
 11 13  2  0
 11 17  1  0
 12 13  1  0
 12 18  1  0
 13 19  1  0
M  CHG  2   1   1   7  -1
M  END
> <activity>
0

$$$$
ligand_528
  SciTegic10272118463D

 27 28  0  0  1  0            999 V2000
    5.8951   30.2866   52.6873 C   0  0
    5.6131   31.4236   53.5061 C   0  0
    5.9332   28.9982   53.2546 N   0  0
    6.2511   27.6727   52.7242 C   0  0  2  0  0  0
    6.1897   30.4078   51.3693 N   0  0
    7.5065   27.0417   53.4401 C   0  0
    5.6641   32.6848   52.8422 C   0  0
    5.9569   32.8017   51.5193 N   0  0
    6.2063   31.6539   50.8535 C   0  0
    5.3304   31.4010   54.9025 C   0  0
    7.7079   27.4468   54.6094 O   0  0
    5.4223   33.8611   53.5792 C   0  0
    5.0746   32.5847   55.5940 C   0  0
    8.1413   26.1583   52.8185 O   0  5
    5.1079   33.8034   54.9316 C   0  0
    4.6883   32.5582   57.4582 Br  0  0
    6.2297   27.4905   51.1737 C   0  0
    6.0301   26.1584   50.7415 O   0  0
    5.9193   29.0044   54.2639 H   0  0
    5.4316   27.0501   53.0829 H   0  0
    6.4500   31.7446   49.8046 H   0  0
    5.3036   30.4655   55.4315 H   0  0
    5.5005   34.8153   53.0817 H   0  0
    4.9240   34.7145   55.4780 H   0  0
    5.3880   28.0400   50.7519 H   0  0
    7.1277   27.8910   50.7076 H   0  0
    5.1350   25.8891   50.9660 H   0  0
  1  2  1  0
  1  3  1  0
  1  5  2  0
  2  7  2  0
  2 10  1  0
  3  4  1  0
  3 19  1  0
  4  6  1  0
  4 17  1  0
  4 20  1  0
  5  9  1  0
  6 11  2  0
  6 14  1  0
  7  8  1  0
  7 12  1  0
  8  9  2  0
  9 21  1  0
 10 13  2  0
 10 22  1  0
 12 15  2  0
 12 23  1  0
 13 15  1  0
 13 16  1  0
 15 24  1  0
 17 18  1  0
 17 25  1  0
 17 26  1  0
 18 27  1  0
M  CHG  1  14  -1
M  END
> <activity>
0

$$$$
ligand_529
  SciTegic10272118463D

 30 31  0  0  1  0            999 V2000
    4.7786   26.8301   52.5160 S   0  0
    5.9494   26.0397   53.5168 C   0  0
    7.1830   26.1598   53.0873 N   0  0
    7.2662   26.9606   51.9541 N   0  0
    6.1053   27.4362   51.5607 C   0  0
    5.5190   25.3928   54.6453 N   0  0
    5.9269   28.4167   50.4104 C   0  0
    7.5056   25.4716   56.2259 C   0  0
    6.7057   29.6135   50.5601 O   0  0
    7.6554   25.7577   57.5288 C   0  0
    6.2858   30.6301   51.4028 C   0  0
    5.5890   32.7562   53.0872 C   0  0
    5.1060   34.1580   54.2860 Br  0  0
    6.8715   31.8898   51.2350 C   0  0
    5.3375   30.4579   52.4194 C   0  0
    6.5148   32.9581   52.0626 C   0  0
    5.0124   31.5089   53.2663 C   0  0
    6.3308   24.7094   55.6402 C   0  0
    4.5518   25.1082   54.6872 H   0  0
    6.2580   27.9450   49.4879 H   0  0
    4.8774   28.6686   50.2447 H   0  0
    8.2700   25.7886   55.5299 H   0  0
    6.9194   25.4585   58.2626 H   0  0
    8.5231   26.2981   57.8825 H   0  0
    7.6099   32.0363   50.4601 H   0  0
    4.8494   29.5173   52.5908 H   0  0
    6.9717   33.9284   51.9290 H   0  0
    4.3060   31.3583   54.0674 H   0  0
    6.7069   23.7945   55.1804 H   0  0
    5.6704   24.4099   56.4555 H   0  0
  1  2  1  0
  1  5  1  0
  2  3  2  0
  2  6  1  0
  3  4  1  0
  4  5  2  0
  5  7  1  0
  6 18  1  0
  6 19  1  0
  7  9  1  0
  7 20  1  0
  7 21  1  0
  8 10  2  0
  8 18  1  0
  8 22  1  0
  9 11  1  0
 10 23  1  0
 10 24  1  0
 11 14  2  0
 11 15  1  0
 12 13  1  0
 12 16  2  0
 12 17  1  0
 14 16  1  0
 14 25  1  0
 15 17  2  0
 15 26  1  0
 16 27  1  0
 17 28  1  0
 18 29  1  0
 18 30  1  0
M  END
> <activity>
0

$$$$
ligand_530
  SciTegic10272118463D

 42 43  0  0  1  0            999 V2000
    6.4191   28.2482   51.4026 C   0  0
    7.0197   26.9889   51.2834 C   0  0
    6.2870   28.8583   52.6591 C   0  0
    7.3524   26.9188   53.6809 C   0  0
    6.6887   25.7570   55.9034 N   0  3  2  0  0  0
    7.4792   26.3312   52.4211 C   0  0
    6.7713   28.1847   53.7940 C   0  0
    7.8200   26.1767   54.9267 C   0  0
    7.2087   25.0106   57.1782 C   0  0
    7.2519   26.1581   49.5820 Br  0  0
    5.9624   28.9024   50.2861 O   0  0
    5.6823   30.1030   52.7015 O   0  0
    5.5613   25.0113   55.1431 C   0  0
    8.1635   25.9669   57.9500 C   0  0
    5.9951   24.5746   58.0485 C   0  0
    5.3982   30.7008   53.9630 C   0  0
    6.3578   24.1700   59.4943 C   0  0
    8.4936   25.5061   59.3836 C   0  0
    7.2227   25.2258   60.1986 C   0  0
    6.2717   26.6163   56.2359 H   0  0
    7.9305   25.3583   52.3113 H   0  0
    6.6867   28.6295   54.7740 H   0  0
    8.4960   26.8220   55.4859 H   0  0
    8.3290   25.2430   54.6861 H   0  0
    7.7503   24.1260   56.8370 H   0  0
    5.5085   29.7144   50.5284 H   0  0
    4.7041   24.9581   55.8082 H   0  0
    5.9337   24.0296   54.8493 H   0  0
    5.2644   25.5907   54.2696 H   0  0
    9.1058   26.0920   57.4195 H   0  0
    7.7207   26.9579   57.9993 H   0  0
    5.4655   23.7569   57.5762 H   0  0
    5.2499   25.3580   58.0730 H   0  0
    4.8388   31.6232   53.8066 H   0  0
    6.3061   30.9565   54.5080 H   0  0
    4.7861   30.0480   54.5866 H   0  0
    5.4493   23.9837   60.0691 H   0  0
    6.9099   23.2319   59.4892 H   0  0
    9.1053   26.2575   59.8865 H   0  0
    9.1058   24.6033   59.3493 H   0  0
    7.4920   24.8840   61.1994 H   0  0
    6.6525   26.1455   60.3371 H   0  0
  1  2  2  0
  1  3  1  0
  1 11  1  0
  2  6  1  0
  2 10  1  0
  3  7  2  0
  3 12  1  0
  4  6  2  0
  4  7  1  0
  4  8  1  0
  5  8  1  0
  5  9  1  0
  5 13  1  0
  5 20  1  0
  6 21  1  0
  7 22  1  0
  8 23  1  0
  8 24  1  0
  9 14  1  0
  9 15  1  0
  9 25  1  0
 11 26  1  0
 12 16  1  0
 13 27  1  0
 13 28  1  0
 13 29  1  0
 14 18  1  0
 14 30  1  0
 14 31  1  0
 15 17  1  0
 15 32  1  0
 15 33  1  0
 16 34  1  0
 16 35  1  0
 16 36  1  0
 17 19  1  0
 17 37  1  0
 17 38  1  0
 18 19  1  0
 18 39  1  0
 18 40  1  0
 19 41  1  0
 19 42  1  0
M  CHG  1   5   1
M  END
> <activity>
0

$$$$
ligand_531
  SciTegic10272118463D

 26 26  0  0  1  0            999 V2000
    5.8304   29.3759   50.8506 C   0  0
    5.5288   30.4898   51.6428 C   0  0
    6.3027   28.1953   51.4356 C   0  0
    6.4561   28.1236   52.8332 C   0  0
    5.6489   30.4246   53.0341 C   0  0
    6.0990   29.2286   53.6180 C   0  0
    6.9375   26.9001   53.5331 C   0  0
    7.9058   26.2229   53.1828 O   0  0
    5.6797   29.4478   49.4874 O   0  0
    6.7066   26.7120   50.2915 Br  0  0
    5.0937   31.6467   51.0434 O   0  0
    5.3288   31.5715   53.7397 O   0  0
    4.3305   29.3573   49.0441 C   0  0
    6.1002   32.6340   50.8904 C   0  0
    5.4501   31.5973   55.1535 C   0  0
    6.1958   29.1641   54.6893 H   0  0
    6.3662   26.6424   54.4233 H   0  0
    4.3064   29.3590   47.9543 H   0  0
    3.7297   30.1998   49.3852 H   0  0
    3.8560   28.4338   49.3858 H   0  0
    5.6406   33.5307   50.4812 H   0  0
    6.8771   32.3069   50.1970 H   0  0
    6.5701   32.9053   51.8376 H   0  0
    5.2717   32.6148   55.5008 H   0  0
    6.4446   31.3091   55.4877 H   0  0
    4.7053   30.9579   55.6264 H   0  0
  1  2  2  0
  1  3  1  0
  1  9  1  0
  2  5  1  0
  2 11  1  0
  3  4  2  0
  3 10  1  0
  4  6  1  0
  4  7  1  0
  5  6  2  0
  5 12  1  0
  6 16  1  0
  7  8  2  0
  7 17  1  0
  9 13  1  0
 11 14  1  0
 12 15  1  0
 13 18  1  0
 13 19  1  0
 13 20  1  0
 14 21  1  0
 14 22  1  0
 14 23  1  0
 15 24  1  0
 15 25  1  0
 15 26  1  0
M  END
> <activity>
0

$$$$
ligand_532
  SciTegic10272118463D

 30 32  0  0  1  0            999 V2000
    5.4992   30.6559   50.5574 C   0  0
    5.2520   29.1684   50.8664 C   0  0  2  0  0  0
    6.8561   31.1308   50.3678 N   0  3
    4.4947   31.4943   50.2882 C   0  0
    3.8598   28.8370   51.1034 O   0  0
    6.1062   28.5342   51.9842 C   0  0
    3.1309   31.0177   50.2820 C   0  0
    2.8617   29.7052   50.6881 C   0  0
    1.5439   29.2410   50.6839 C   0  0
    0.5170   30.1105   50.3281 C   0  0
    7.2235   32.0863   51.0431 O   0  5
    7.4809   30.5587   49.4884 O   0  0
    2.0990   31.8379   49.8358 C   0  0
    6.7371   27.2903   51.7955 C   0  0
    6.2243   29.1316   53.2538 C   0  0
    0.7844   31.4004   49.8862 C   0  0
    1.1065   27.4321   51.0880 Br  0  0
    6.7059   26.4484   50.2880 Cl  0  0
    5.5060   30.6557   53.6454 Cl  0  0
   -0.6252   32.5580   49.3419 Br  0  0
    7.5429   27.2761   54.0723 C   0  0
    6.9421   28.5081   54.2703 C   0  0
    7.4361   26.6746   52.8294 C   0  0
    5.5013   28.6746   49.9287 H   0  0
    4.7061   32.5233   50.0256 H   0  0
   -0.4940   29.7582   50.3641 H   0  0
    2.3058   32.8214   49.4520 H   0  0
    8.0851   26.7981   54.8752 H   0  0
    7.0309   28.9903   55.2322 H   0  0
    7.8953   25.7123   52.6581 H   0  0
  1  2  1  0
  1  3  1  0
  1  4  2  0
  2  5  1  0
  2  6  1  0
  2 24  1  0
  3 11  1  0
  3 12  2  0
  4  7  1  0
  4 25  1  0
  5  8  1  0
  6 14  2  0
  6 15  1  0
  7  8  2  0
  7 13  1  0
  8  9  1  0
  9 10  2  0
  9 17  1  0
 10 16  1  0
 10 26  1  0
 13 16  2  0
 13 27  1  0
 14 18  1  0
 14 23  1  0
 15 19  1  0
 15 22  2  0
 16 20  1  0
 21 22  1  0
 21 23  2  0
 21 28  1  0
 22 29  1  0
 23 30  1  0
M  CHG  2   3   1  11  -1
M  END
> <activity>
0

$$$$
ligand_533
  SciTegic10272118463D

 31 32  0  0  1  0            999 V2000
    5.9275   28.8272   52.0968 C   0  0
    5.1564   29.7751   51.3910 C   0  0
    6.1297   29.3549   53.3759 C   0  0
    4.9265   30.8523   52.2435 C   0  0
    5.5065   30.5778   53.4627 N   0  0
    6.4744   27.5150   51.6994 C   0  0
    6.9283   28.6274   54.3564 C   0  0
    7.3778   26.7960   52.7781 C   0  0
    7.5081   27.4409   54.0894 C   0  0
    4.6952   29.7013   50.0158 C   0  0
    6.3039   26.9440   50.6194 O   0  0
    7.9433   25.7581   52.4480 O   0  0
    5.4188   29.3580   49.0879 O   0  0
    8.6111   26.5578   55.4745 Br  0  0
    5.5061   31.4550   54.6253 C   0  0
    4.2146   32.1580   51.9892 C   0  0
    3.3951   30.0680   49.9274 O   0  0
    2.6546   29.9291   48.7228 C   0  0
    1.9696   28.5584   48.7106 C   0  0
    7.1067   29.0645   55.3229 H   0  0
    5.6965   30.8799   55.5237 H   0  0
    4.5378   31.9457   54.7281 H   0  0
    6.2924   32.2006   54.5095 H   0  0
    4.6814   32.9722   52.5369 H   0  0
    3.1691   32.1089   52.2863 H   0  0
    4.2324   32.4443   50.9374 H   0  0
    3.2787   30.0656   47.8374 H   0  0
    1.8983   30.7140   48.7002 H   0  0
    1.2657   28.4749   47.8879 H   0  0
    1.4117   28.3845   49.6311 H   0  0
    2.7040   27.7582   48.6096 H   0  0
  1  2  1  0
  1  3  2  0
  1  6  1  0
  2  4  2  0
  2 10  1  0
  3  5  1  0
  3  7  1  0
  4  5  1  0
  4 16  1  0
  5 15  1  0
  6  8  1  0
  6 11  2  0
  7  9  2  0
  7 20  1  0
  8  9  1  0
  8 12  2  0
  9 14  1  0
 10 13  2  0
 10 17  1  0
 15 21  1  0
 15 22  1  0
 15 23  1  0
 16 24  1  0
 16 25  1  0
 16 26  1  0
 17 18  1  0
 18 19  1  0
 18 27  1  0
 18 28  1  0
 19 29  1  0
 19 30  1  0
 19 31  1  0
M  END
> <activity>
0

$$$$
ligand_534
  SciTegic10272118463D

 50 51  0  0  1  0            999 V2000
    4.7815   28.0346   52.2875 C   0  0
    4.6120   29.2652   51.7024 N   0  0
    4.1651   27.0501   51.8883 O   0  0
    5.7395   27.8160   53.4876 C   0  0  2  0  0  0
    5.4827   30.4455   51.9371 C   0  0
    3.5079   29.5029   50.7308 C   0  0
    7.4704   26.9642   52.9680 Br  0  0
    6.2773   30.9129   50.6923 C   0  0
    3.6367   28.7961   49.3613 C   0  0
    4.7576   31.6435   52.6047 C   0  0
    2.0807   29.2910   51.2983 C   0  0
    5.1083   27.0755   54.7047 C   0  0
    4.5293   25.6451   54.5552 C   0  0
    5.5681   24.5493   54.2890 C   0  0
    2.5338   29.2342   48.3746 C   0  0
    0.9968   29.7925   50.3326 C   0  0
    5.6883   32.8313   52.9065 C   0  0
    7.2538   32.0598   51.0257 C   0  0
    6.5368   33.2521   51.6870 C   0  0
    1.1158   29.0911   48.9693 C   0  0
    6.0242   28.7732   53.9170 H   0  0
    6.2753   30.1655   52.6246 H   0  0
    3.5556   30.5635   50.4863 H   0  0
    6.8386   30.0722   50.2840 H   0  0
    5.5968   31.2368   49.9033 H   0  0
    4.6185   28.9878   48.9263 H   0  0
    3.5738   27.7176   49.4921 H   0  0
    4.3055   31.3143   53.5390 H   0  0
    3.9379   31.9977   51.9822 H   0  0
    1.9822   29.7941   52.2556 H   0  0
    1.9104   28.2300   51.4885 H   0  0
    5.8615   27.0481   55.4899 H   0  0
    4.3060   27.7082   55.0937 H   0  0
    4.0231   25.3948   55.4890 H   0  0
    3.7434   25.6075   53.8003 H   0  0
    5.1049   23.5638   54.2878 H   0  0
    6.3524   24.5484   55.0446 H   0  0
    6.0359   24.6725   53.3143 H   0  0
    2.6138   28.6283   47.4759 H   0  0
    2.7047   30.2679   48.0704 H   0  0
    0.0099   29.6229   50.7633 H   0  0
    1.0925   30.8723   50.2017 H   0  0
    5.1064   33.6827   53.2642 H   0  0
    6.3265   32.5551   53.7410 H   0  0
    7.7692   32.3880   50.1214 H   0  0
    8.0330   31.6899   51.6939 H   0  0
    7.2642   34.0097   51.9795 H   0  0
    5.8907   33.7223   50.9480 H   0  0
    0.3706   29.4954   48.2865 H   0  0
    0.8823   28.0317   49.0875 H   0  0
  1  2  1  0
  1  3  2  0
  1  4  1  0
  2  5  1  0
  2  6  1  0
  4  7  1  0
  4 12  1  0
  4 21  1  0
  5  8  1  0
  5 10  1  0
  5 22  1  0
  6  9  1  0
  6 11  1  0
  6 23  1  0
  8 18  1  0
  8 24  1  0
  8 25  1  0
  9 15  1  0
  9 26  1  0
  9 27  1  0
 10 17  1  0
 10 28  1  0
 10 29  1  0
 11 16  1  0
 11 30  1  0
 11 31  1  0
 12 13  1  0
 12 32  1  0
 12 33  1  0
 13 14  1  0
 13 34  1  0
 13 35  1  0
 14 36  1  0
 14 37  1  0
 14 38  1  0
 15 20  1  0
 15 39  1  0
 15 40  1  0
 16 20  1  0
 16 41  1  0
 16 42  1  0
 17 19  1  0
 17 43  1  0
 17 44  1  0
 18 19  1  0
 18 45  1  0
 18 46  1  0
 19 47  1  0
 19 48  1  0
 20 49  1  0
 20 50  1  0
M  END
> <activity>
0

$$$$
ligand_535
  SciTegic10272118463D

 34 35  0  0  1  0            999 V2000
    4.6461   30.1062   50.5392 C   0  0
    3.2999   30.2768   50.1761 C   0  0
    4.8422   28.9447   51.1234 N   0  0
    3.6329   28.3701   51.1943 N   0  0
    2.6433   29.1325   50.6091 C   0  0
    5.7280   31.0019   50.2888 N   0  3
    3.5153   27.0334   51.7888 C   0  0
    5.6081   32.1548   50.6886 O   0  5
    5.6705   27.0449   53.1918 N   0  3
    6.7063   30.5592   49.6906 O   0  0
    2.5321   31.7577   49.2572 Br  0  0
    4.1304   26.9096   53.2065 C   0  0
    8.3054   26.1815   53.8346 O   0  0
    1.1953   28.6989   50.5068 C   0  0
    6.2120   27.1483   54.6370 C   0  0
    6.3681   25.9014   52.4121 C   0  0
    7.8841   26.1420   52.4746 C   0  0
    7.7482   27.2539   54.5924 C   0  0
    3.9523   26.3270   51.0879 H   0  0
    2.4616   26.7660   51.8280 H   0  0
    5.8786   27.9168   52.7152 H   0  0
    3.9042   25.9509   53.6783 H   0  0
    3.7771   27.7146   53.8550 H   0  0
    1.0891   27.7589   49.9641 H   0  0
    0.5842   29.4362   49.9839 H   0  0
    0.7408   28.5561   51.4887 H   0  0
    5.7556   28.0299   55.0876 H   0  0
    5.8871   26.2493   55.1654 H   0  0
    6.0279   25.9163   51.3760 H   0  0
    6.0841   24.9598   52.8854 H   0  0
    8.1445   27.0738   51.9731 H   0  0
    8.4200   25.3585   51.9404 H   0  0
    8.0581   28.2091   54.1624 H   0  0
    8.1595   27.2203   55.6025 H   0  0
  1  2  1  0
  1  3  2  0
  1  6  1  0
  2  5  2  0
  2 11  1  0
  3  4  1  0
  4  5  1  0
  4  7  1  0
  5 14  1  0
  6  8  1  0
  6 10  2  0
  7 12  1  0
  7 19  1  0
  7 20  1  0
  9 12  1  0
  9 15  1  0
  9 16  1  0
  9 21  1  0
 12 22  1  0
 12 23  1  0
 13 17  1  0
 13 18  1  0
 14 24  1  0
 14 25  1  0
 14 26  1  0
 15 18  1  0
 15 27  1  0
 15 28  1  0
 16 17  1  0
 16 29  1  0
 16 30  1  0
 17 31  1  0
 17 32  1  0
 18 33  1  0
 18 34  1  0
M  CHG  3   6   1   8  -1   9   1
M  END
> <activity>
0

$$$$
ligand_536
  SciTegic10272118463D

 25 26  0  0  1  0            999 V2000
    6.6543   27.2660   52.1210 C   0  0
    5.8686   27.3820   53.4339 C   0  0  2  0  0  0
    6.6730   28.5588   52.8901 C   0  0
    6.3372   26.6396   54.7085 C   0  0
    5.7030   27.2807   50.3733 Br  0  0
    8.3061   26.1583   52.0556 Br  0  0
    5.4487   25.8141   55.4138 C   0  0
    7.6387   26.7980   55.2115 C   0  0
    4.3371   27.5618   53.2924 C   0  0
    8.0346   26.1580   56.3830 C   0  0
    5.8415   25.1810   56.5901 C   0  0
    7.1345   25.3524   57.0770 C   0  0
    7.5611   24.6586   58.3590 C   0  0
    7.5911   28.8757   53.3792 H   0  0
    6.1319   29.4127   52.4819 H   0  0
    4.4360   25.6596   55.0720 H   0  0
    8.3645   27.4194   54.7131 H   0  0
    3.8474   26.6107   53.0875 H   0  0
    4.0568   28.2402   52.4860 H   0  0
    3.9069   27.9709   54.2063 H   0  0
    9.0406   26.2963   56.7539 H   0  0
    5.1346   24.5601   57.1222 H   0  0
    7.9041   23.6451   58.1434 H   0  0
    6.7316   24.5967   59.0668 H   0  0
    8.3764   25.1971   58.8488 H   0  0
  1  2  1  0
  1  3  1  0
  1  5  1  0
  1  6  1  0
  2  3  1  0
  2  4  1  0
  2  9  1  0
  3 14  1  0
  3 15  1  0
  4  7  2  0
  4  8  1  0
  7 11  1  0
  7 16  1  0
  8 10  2  0
  8 17  1  0
  9 18  1  0
  9 19  1  0
  9 20  1  0
 10 12  1  0
 10 21  1  0
 11 12  2  0
 11 22  1  0
 12 13  1  0
 13 23  1  0
 13 24  1  0
 13 25  1  0
M  END
> <activity>
0

$$$$
ligand_537
  SciTegic10272118463D

 38 41  0  0  1  0            999 V2000
    5.3656   28.6002   52.4336 C   0  0  2  0  0  0
    6.4494   27.6487   51.9085 C   0  0
    5.8221   29.9521   52.8737 C   0  0
    4.8282   27.9393   53.7096 C   0  0
    6.3052   27.0776   50.7112 C   0  0
    5.1061   28.8058   54.6856 N   0  0
    5.5059   30.0588   54.2112 C   0  0
    5.2573   27.2831   49.9021 O   0  0
    4.2062   28.8149   51.4338 C   0  0
    4.1864   28.0715   50.2672 C   0  0
    6.2034   31.0750   52.1313 C   0  0
    7.5049   27.1909   52.7545 C   0  0
    8.3041   26.7147   53.4422 N   0  0
    3.1139   28.1584   49.3731 C   0  0
    3.1907   29.7744   51.5905 C   0  0
    4.3060   26.8307   53.8226 O   0  0
    5.5054   31.2947   54.8499 C   0  0
    6.1333   32.3328   52.7428 C   0  0
    7.1291   26.1579   50.1164 N   0  0
    5.7728   32.4344   54.0954 C   0  0
    2.0917   29.0664   49.5914 C   0  0
    6.7051   30.8864   50.2939 Br  0  0
    2.1345   29.9001   50.6958 C   0  0
    1.0425   29.1603   48.6874 N   0  0
    6.4319   33.6055   51.9684 C   0  0
    4.9102   28.5578   55.6434 H   0  0
    3.1058   27.5500   48.4842 H   0  0
    3.2169   30.4449   52.4326 H   0  0
    5.2272   31.3895   55.8898 H   0  0
    8.0616   26.0132   50.4690 H   0  0
    6.7442   25.4265   49.5387 H   0  0
    5.7235   33.4031   54.5711 H   0  0
    1.3654   30.6378   50.8665 H   0  0
    0.9434   28.3840   48.0501 H   0  0
    0.2058   29.6211   49.0119 H   0  0
    7.5015   33.8206   51.9749 H   0  0
    5.9064   34.4542   52.4078 H   0  0
    6.0971   33.5309   50.9348 H   0  0
  1  2  1  0
  1  3  1  0
  1  4  1  0
  1  9  1  0
  2  5  2  0
  2 12  1  0
  3  7  2  0
  3 11  1  0
  4  6  1  0
  4 16  2  0
  5  8  1  0
  5 19  1  0
  6  7  1  0
  6 26  1  0
  7 17  1  0
  8 10  1  0
  9 10  2  0
  9 15  1  0
 10 14  1  0
 11 18  2  0
 11 22  1  0
 12 13  3  0
 14 21  2  0
 14 27  1  0
 15 23  2  0
 15 28  1  0
 17 20  2  0
 17 29  1  0
 18 20  1  0
 18 25  1  0
 19 30  1  0
 19 31  1  0
 20 32  1  0
 21 23  1  0
 21 24  1  0
 23 33  1  0
 24 34  1  0
 24 35  1  0
 25 36  1  0
 25 37  1  0
 25 38  1  0
M  END
> <activity>
0

$$$$
ligand_538
  SciTegic10272118463D

 22 23  0  0  1  0            999 V2000
    6.0418   28.4784   52.6233 C   0  0
    5.1315   27.4159   52.7230 C   0  0
    7.1446   28.5580   53.4652 O   0  0
    5.3885   26.3884   53.7574 C   0  0
    7.4248   27.5910   54.4190 C   0  0
    5.8579   29.4882   51.6655 C   0  0
    6.4830   26.4744   54.5457 C   0  0
    4.7474   29.4320   50.8139 C   0  0
    4.0479   27.3617   51.8393 C   0  0
    3.8573   28.3573   50.8849 C   0  0
    8.4409   27.7583   55.0878 O   0  0
    7.1059   30.9241   51.4880 Br  0  0
    6.9149   25.1322   55.9446 Br  0  0
    4.5218   30.4162   49.8880 O   0  0
    2.8014   28.2622   50.0105 O   0  0
    4.3691   25.2727   53.8883 C   0  0
    3.3365   26.5583   51.8885 H   0  0
    3.7177   30.2167   49.3978 H   0  0
    2.4723   27.3602   49.9097 H   0  0
    3.3945   25.6936   54.1234 H   0  0
    4.6156   24.5625   54.6748 H   0  0
    4.3057   24.7075   52.9602 H   0  0
  1  2  2  0
  1  3  1  0
  1  6  1  0
  2  4  1  0
  2  9  1  0
  3  5  1  0
  4  7  2  0
  4 16  1  0
  5  7  1  0
  5 11  2  0
  6  8  2  0
  6 12  1  0
  7 13  1  0
  8 10  1  0
  8 14  1  0
  9 10  2  0
  9 17  1  0
 10 15  1  0
 14 18  1  0
 15 19  1  0
 16 20  1  0
 16 21  1  0
 16 22  1  0
M  END
> <activity>
0

$$$$
ligand_539
  SciTegic10272118463D

 48 51  0  0  1  0            999 V2000
    5.6835   28.9165   51.1450 C   0  0
    5.2271   31.0521   51.7787 C   0  0
    5.4038   30.3081   52.9030 O   0  0
    5.9189   29.1119   52.4889 C   0  0
    2.6210   34.5580   58.2880 N   0  3
    4.8993   30.0944   50.6518 C   0  0  2  0  0  0
    6.6896   28.2281   53.2444 C   0  0
    3.3827   29.7684   50.5612 N   0  3
    5.4569   32.3745   51.7353 C   0  0
    7.2206   27.0986   52.6137 C   0  0
    3.4575   33.9516   57.2334 C   0  0
    6.3060   27.8533   50.5066 C   0  0
    2.7060   34.1498   59.4324 O   0  5
    1.8220   35.4335   57.9703 O   0  0
    7.0512   26.9330   51.2352 C   0  0
    0.9417   29.7392   49.0326 O   0  0
    3.1029   34.1679   55.9045 C   0  0
    4.6072   33.2055   57.5219 C   0  0
    7.1095   28.5873   55.0592 Br  0  0
    5.9306   33.2387   52.8805 C   0  0
    7.9060   25.5295   50.2880 Br  0  0
    5.0955   33.0606   55.1507 C   0  0
    5.4063   32.7422   56.4750 C   0  0
    3.9596   33.8206   54.8845 C   0  0
    5.9060   32.5750   54.1513 O   0  0
    2.5663   31.0575   50.2779 C   0  0
    3.0988   28.6843   49.4881 C   0  0
    1.0826   30.7011   50.0710 C   0  0
    1.5781   28.4984   49.3182 C   0  0
    5.2032   30.4566   49.6675 H   0  0
    3.1013   29.4051   51.4631 H   0  0
    5.3329   32.8894   50.7941 H   0  0
    7.8206   26.3993   53.1744 H   0  0
    6.2864   27.7580   49.4464 H   0  0
    2.2098   34.7234   55.6531 H   0  0
    4.8883   32.9904   58.5435 H   0  0
    6.9809   33.4305   52.6648 H   0  0
    5.5059   34.2392   52.8560 H   0  0
    6.2860   32.1580   56.6903 H   0  0
    3.6811   34.1214   53.8880 H   0  0
    2.6967   31.7305   51.1264 H   0  0
    2.9900   31.5106   49.3793 H   0  0
    3.5733   27.7580   49.8132 H   0  0
    3.5594   29.0230   48.5581 H   0  0
    0.6375   30.3196   50.9926 H   0  0
    0.5180   31.5931   49.7971 H   0  0
    1.1379   28.0505   50.2119 H   0  0
    1.3785   27.8055   48.4997 H   0  0
  1  4  2  0
  1  6  1  0
  1 12  1  0
  2  3  1  0
  2  6  1  0
  2  9  2  0
  3  4  1  0
  4  7  1  0
  5 11  1  0
  5 13  1  0
  5 14  2  0
  6  8  1  0
  6 30  1  0
  7 10  2  0
  7 19  1  0
  8 26  1  0
  8 27  1  0
  8 31  1  0
  9 20  1  0
  9 32  1  0
 10 15  1  0
 10 33  1  0
 11 17  2  0
 11 18  1  0
 12 15  2  0
 12 34  1  0
 15 21  1  0
 16 28  1  0
 16 29  1  0
 17 24  1  0
 17 35  1  0
 18 23  2  0
 18 36  1  0
 20 25  1  0
 20 37  1  0
 20 38  1  0
 22 23  1  0
 22 24  2  0
 22 25  1  0
 23 39  1  0
 24 40  1  0
 26 28  1  0
 26 41  1  0
 26 42  1  0
 27 29  1  0
 27 43  1  0
 27 44  1  0
 28 45  1  0
 28 46  1  0
 29 47  1  0
 29 48  1  0
M  CHG  3   5   1   8   1  13  -1
M  END
> <activity>
0

$$$$
ligand_540
  SciTegic10272118463D

 23 24  0  0  1  0            999 V2000
    4.6660   26.7797   52.8167 C   0  0
    6.3227   27.1638   53.2151 S   0  0
    4.2041   25.7581   53.4877 N   0  0
    3.9967   28.7435   51.3424 C   0  0
    5.1202   25.2476   54.3972 N   0  0
    3.2424   29.0774   50.1961 C   0  0
    3.8978   27.4452   51.8879 N   0  0
    6.2703   25.8769   54.3873 C   0  0
    3.2968   30.3758   49.6705 C   0  0
    4.7606   29.7486   51.9560 C   0  0
    4.0812   31.3474   50.2883 C   0  0
    4.8090   31.0373   51.4308 C   0  0
    2.3062   30.8554   48.1093 Br  0  0
    2.4366   28.1581   49.5632 O   0  0
    5.8564   32.3790   52.2843 Br  0  0
    7.4157   25.5227   55.3055 C   0  0
    3.0966   26.9466   51.5302 H   0  0
    5.2968   29.5658   52.8719 H   0  0
    4.1206   32.3484   49.8880 H   0  0
    2.7395   27.2395   49.5645 H   0  0
    8.3047   25.2394   54.7447 H   0  0
    7.1764   24.6886   55.9668 H   0  0
    7.6898   26.3635   55.9429 H   0  0
  1  2  1  0
  1  3  2  0
  1  7  1  0
  2  8  1  0
  3  5  1  0
  4  6  2  0
  4  7  1  0
  4 10  1  0
  5  8  2  0
  6  9  1  0
  6 14  1  0
  7 17  1  0
  8 16  1  0
  9 11  2  0
  9 13  1  0
 10 12  2  0
 10 18  1  0
 11 12  1  0
 11 19  1  0
 12 15  1  0
 14 20  1  0
 16 21  1  0
 16 22  1  0
 16 23  1  0
M  END
> <activity>
0

$$$$
ligand_541
  SciTegic10272118463D

 25 26  0  0  1  0            999 V2000
    5.3842   30.9868   52.0024 S   0  0
    6.1400   29.3851   52.3064 C   0  0
    3.8888   30.6354   51.0729 C   0  0
    1.6808   29.9131   49.5016 C   0  0
    7.3365   26.8813   52.6866 C   0  0
    6.8877   27.2670   51.4162 C   0  0
    2.4064   31.0728   49.2028 C   0  0
    7.1944   27.7600   53.7678 C   0  0
    2.0449   29.1430   50.6136 C   0  0
    6.5677   28.9959   53.5812 C   0  0
    3.1354   29.5087   51.3966 C   0  0
    6.3060   28.5168   51.2294 C   0  0
    3.5060   31.4318   49.9895 C   0  0
    6.2880   31.7185   51.1066 O   0  0
    4.9851   31.5551   53.2947 O   0  0
    0.7060   29.5662   48.7612 O   0  5
    7.9060   25.7580   52.8582 O   0  5
    1.9247   32.1580   47.7084 Br  0  0
    7.1093   26.1580   49.8880 Br  0  0
    1.1060   27.5628   51.0880 Br  0  0
    7.9060   27.3142   55.4847 Br  0  0
    6.4534   29.6697   54.4187 H   0  0
    3.4119   28.8915   52.2399 H   0  0
    5.9820   28.8109   50.2411 H   0  0
    4.0796   32.3129   49.7402 H   0  0
  1  2  1  0
  1  3  1  0
  1 14  2  0
  1 15  2  0
  2 10  2  0
  2 12  1  0
  3 11  2  0
  3 13  1  0
  4  7  1  0
  4  9  2  0
  4 16  1  0
  5  6  1  0
  5  8  2  0
  5 17  1  0
  6 12  2  0
  6 19  1  0
  7 13  2  0
  7 18  1  0
  8 10  1  0
  8 21  1  0
  9 11  1  0
  9 20  1  0
 10 22  1  0
 11 23  1  0
 12 24  1  0
 13 25  1  0
M  CHG  2  16  -1  17  -1
M  END
> <activity>
0

$$$$
ligand_542
  SciTegic10272118463D

 29 29  0  0  1  0            999 V2000
    6.4100   27.6113   52.9882 C   0  0
    5.1924   26.9217   52.8627 C   0  0
    6.5937   28.7911   52.2553 C   0  0
    7.5061   27.1331   53.8821 C   0  0
    4.2216   27.3857   51.9738 C   0  0
    5.6300   29.2525   51.3463 C   0  0
    4.4332   28.5395   51.2026 C   0  0
    8.2128   26.1753   53.4823 O   0  0
    1.3490   29.2317   49.2117 C   0  0
    4.7884   25.3600   53.8881 Br  0  0
    1.8086   30.0931   48.2875 C   0  0
    7.6881   27.7635   54.9464 O   0  5
    3.5212   29.0314   50.2874 O   0  0
    5.7982   30.3738   50.5478 O   0  0
    2.1669   28.5873   50.3187 C   0  0
    6.7577   31.3767   50.8791 C   0  0
    6.3053   32.2142   52.0845 C   0  0
    7.5060   29.3434   52.3938 H   0  0
    3.3047   26.8244   51.8871 H   0  0
    0.3063   28.9518   49.1863 H   0  0
    2.8444   30.4018   48.2700 H   0  0
    1.1535   30.5015   47.5326 H   0  0
    2.0972   27.5091   50.1885 H   0  0
    1.7141   28.8358   51.2805 H   0  0
    7.7550   30.9635   51.0269 H   0  0
    6.8443   32.0323   50.0121 H   0  0
    7.0119   33.0197   52.2889 H   0  0
    6.2257   31.6068   52.9862 H   0  0
    5.3310   32.6651   51.8994 H   0  0
  1  2  2  0
  1  3  1  0
  1  4  1  0
  2  5  1  0
  2 10  1  0
  3  6  2  0
  3 18  1  0
  4  8  2  0
  4 12  1  0
  5  7  2  0
  5 19  1  0
  6  7  1  0
  6 14  1  0
  7 13  1  0
  9 11  2  0
  9 15  1  0
  9 20  1  0
 11 21  1  0
 11 22  1  0
 13 15  1  0
 14 16  1  0
 15 23  1  0
 15 24  1  0
 16 17  1  0
 16 25  1  0
 16 26  1  0
 17 27  1  0
 17 28  1  0
 17 29  1  0
M  CHG  1  12  -1
M  END
> <activity>
0

$$$$
ligand_543
  SciTegic10272118463D

 21 21  0  0  1  0            999 V2000
    6.1340   27.4302   52.5768 C   0  0
    4.6408   29.7400   51.9336 C   0  0
    4.5216   28.5836   51.1545 C   0  0
    5.4744   29.7342   53.0654 C   0  0
    5.2536   27.4387   51.4790 C   0  0
    6.2406   28.5912   53.3822 C   0  0
    6.9365   26.1778   52.8169 C   0  0
    5.5079   31.1414   54.0919 Cl  0  0
    3.3418   28.5584   49.6443 Br  0  0
    7.9062   26.0565   53.5636 O   0  0
    5.1060   26.3268   50.6841 O   0  0
    3.8265   30.9782   51.5514 C   0  0
    7.1684   28.6101   54.6037 C   0  0
    6.5876   25.3029   52.2700 H   0  0
    4.2738   26.3189   50.1917 H   0  0
    2.7858   30.8382   51.8418 H   0  0
    3.8602   31.1534   50.4765 H   0  0
    4.1819   31.8983   52.0102 H   0  0
    7.0893   29.4945   55.2277 H   0  0
    8.2056   28.5496   54.2785 H   0  0
    6.9636   27.7584   55.2502 H   0  0
  1  5  1  0
  1  6  2  0
  1  7  1  0
  2  3  1  0
  2  4  2  0
  2 12  1  0
  3  5  2  0
  3  9  1  0
  4  6  1  0
  4  8  1  0
  5 11  1  0
  6 13  1  0
  7 10  2  0
  7 14  1  0
 11 15  1  0
 12 16  1  0
 12 17  1  0
 12 18  1  0
 13 19  1  0
 13 20  1  0
 13 21  1  0
M  END
> <activity>
0

$$$$
ligand_544
  SciTegic10272118463D

 30 31  0  0  1  0            999 V2000
    5.1120   28.7194   51.7441 C   0  0
    4.8540   30.0831   51.7054 N   0  0
    4.3327   28.0298   50.9486 N   0  0
    3.8026   30.2580   50.8217 C   0  0
    3.5111   28.9525   50.3667 C   0  0
    5.5762   31.1365   52.4207 C   0  0
    6.3233   32.1163   51.5244 C   0  0
    6.3772   27.9539   52.7041 S   0  0
    4.4729   26.6974   54.4319 C   0  0
    6.4733   33.4280   51.7596 C   0  0
    4.2230   25.7285   53.5371 C   0  0
    7.1063   31.3161   49.8882 Br  0  0
    3.0938   31.3762   50.3641 C   0  0
    2.4918   28.7559   49.4286 C   0  0
    5.4594   27.8440   54.2777 C   0  0
    2.0821   31.1469   49.4272 C   0  0
    1.7851   29.8661   48.9665 C   0  0
    4.8659   31.6656   53.0561 H   0  0
    6.3015   30.6784   53.0887 H   0  0
    3.9291   26.6743   55.3676 H   0  0
    6.0549   33.8979   52.6400 H   0  0
    7.0255   34.0581   51.0757 H   0  0
    4.7174   25.6825   52.5760 H   0  0
    3.5070   24.9573   53.7591 H   0  0
    3.3144   32.3769   50.7103 H   0  0
    2.2629   27.7615   49.0701 H   0  0
    6.1932   27.7415   55.0777 H   0  0
    4.9413   28.7857   54.4649 H   0  0
    1.5162   31.9873   49.0481 H   0  0
    0.9971   29.7296   48.2403 H   0  0
  1  2  1  0
  1  3  2  0
  1  8  1  0
  2  4  1  0
  2  6  1  0
  3  5  1  0
  4  5  2  0
  4 13  1  0
  5 14  1  0
  6  7  1  0
  6 18  1  0
  6 19  1  0
  7 10  2  0
  7 12  1  0
  8 15  1  0
  9 11  2  0
  9 15  1  0
  9 20  1  0
 10 21  1  0
 10 22  1  0
 11 23  1  0
 11 24  1  0
 13 16  2  0
 13 25  1  0
 14 17  2  0
 14 26  1  0
 15 27  1  0
 15 28  1  0
 16 17  1  0
 16 29  1  0
 17 30  1  0
M  END
> <activity>
0

$$$$
ligand_545
  SciTegic10272118463D

 30 31  0  0  1  0            999 V2000
    6.1652   26.4977   54.3715 C   0  0  2  0  0  0
    6.1874   31.7798   51.5339 C   0  0  2  0  0  0
    7.3153   25.7640   55.0495 C   0  0
    5.5922   32.8482   52.4383 C   0  0
    7.0185   25.5100   53.5900 C   0  0  2  0  0  0
    4.9650   32.5579   51.0870 C   0  0  2  0  0  0
    6.3886   28.0050   54.0856 C   0  0
    5.9910   30.2871   51.8912 C   0  0
    5.3518   28.6739   53.5322 N   0  0
    5.5059   30.0001   53.1207 N   0  0
    7.4823   28.5276   54.3231 O   0  0
    6.3157   29.4280   51.0668 O   0  0
    8.3057   26.1577   52.2060 Br  0  0
    3.1482   31.7284   51.0703 Br  0  0
    4.7218   26.0815   54.7440 C   0  0
    7.5340   32.0975   50.8603 C   0  0
    7.0707   24.9936   55.7816 H   0  0
    8.2314   26.2968   55.3111 H   0  0
    5.0192   32.5893   53.3287 H   0  0
    6.1479   33.7775   52.5727 H   0  0
    6.5598   24.5601   53.3219 H   0  0
    5.1016   33.2887   50.2899 H   0  0
    4.4411   28.2870   53.3347 H   0  0
    5.2225   30.6783   53.8129 H   0  0
    4.0379   26.1847   53.8999 H   0  0
    4.3378   26.6854   55.5662 H   0  0
    4.6733   25.0391   55.0622 H   0  0
    7.6619   33.1667   50.6867 H   0  0
    7.6297   31.5944   49.8964 H   0  0
    8.3650   31.7724   51.4879 H   0  0
  1  3  1  0
  1  5  1  0
  1  7  1  0
  1 15  1  0
  2  4  1  0
  2  6  1  0
  2  8  1  0
  2 16  1  0
  3  5  1  0
  3 17  1  0
  3 18  1  0
  4  6  1  0
  4 19  1  0
  4 20  1  0
  5 13  1  0
  5 21  1  0
  6 14  1  0
  6 22  1  0
  7  9  1  0
  7 11  2  0
  8 10  1  0
  8 12  2  0
  9 10  1  0
  9 23  1  0
 10 24  1  0
 15 25  1  0
 15 26  1  0
 15 27  1  0
 16 28  1  0
 16 29  1  0
 16 30  1  0
M  END
> <activity>
0

$$$$
ligand_546
  SciTegic10272118463D

 14 14  0  0  1  0            999 V2000
    7.6353   25.3335   58.2846 N   0  0
    5.5166   24.2217   58.6477 C   0  0
    6.4158   24.9307   57.8438 C   0  0
    5.8910   23.9219   59.9581 C   0  0
    7.9860   25.0229   59.5606 C   0  0
    7.1445   24.3208   60.4264 C   0  0
    4.7008   22.9580   61.0844 Br  0  0
    6.0787   25.3056   56.4138 C   0  0
    4.5490   23.9254   58.2769 H   0  0
    8.9627   25.3495   59.8868 H   0  0
    7.4593   24.0946   61.4340 H   0  0
    6.1016   26.3871   56.2835 H   0  0
    5.0854   24.9620   56.1287 H   0  0
    6.7989   24.8647   55.7250 H   0  0
  1  3  1  0
  1  5  2  0
  2  3  2  0
  2  4  1  0
  2  9  1  0
  3  8  1  0
  4  6  2  0
  4  7  1  0
  5  6  1  0
  5 10  1  0
  6 11  1  0
  8 12  1  0
  8 13  1  0
  8 14  1  0
M  END
> <activity>
0

$$$$
ligand_547
  SciTegic10272118463D

 28 28  0  0  1  0            999 V2000
    6.8795   25.8834   55.1290 C   0  0
    7.8812   26.1125   56.0784 C   0  0
    5.6836   25.3047   55.5483 C   0  0
    7.1315   26.2503   53.4019 S   0  0
    7.7192   25.7259   57.4074 C   0  0
    5.5058   24.9580   56.8902 C   0  0
    6.3580   27.8601   53.0057 C   0  0
    6.5320   25.1293   57.8176 C   0  0
    9.4933   26.9580   55.6087 Br  0  0
    4.3060   24.9472   54.2880 Br  0  0
    4.8644   27.9794   53.3739 C   0  0
    6.4771   28.0807   51.4851 C   0  0
    7.1129   28.9580   53.7565 C   0  0
    6.3492   24.7018   59.2631 C   0  0
    8.5174   25.8937   58.1170 H   0  0
    4.5596   24.5579   57.2156 H   0  0
    4.6919   27.8177   54.4381 H   0  0
    4.2546   27.2710   52.8140 H   0  0
    4.4731   28.9701   53.1394 H   0  0
    7.5059   27.9913   51.1458 H   0  0
    6.1148   29.0655   51.1868 H   0  0
    5.8976   27.3390   50.9336 H   0  0
    8.1683   28.9579   53.4882 H   0  0
    7.0477   28.8306   54.8377 H   0  0
    6.7059   29.9408   53.5221 H   0  0
    6.8769   23.7652   59.4475 H   0  0
    5.2963   24.5520   59.5089 H   0  0
    6.7444   25.4573   59.9440 H   0  0
  1  2  2  0
  1  3  1  0
  1  4  1  0
  2  5  1  0
  2  9  1  0
  3  6  2  0
  3 10  1  0
  4  7  1  0
  5  8  2  0
  5 15  1  0
  6  8  1  0
  6 16  1  0
  7 11  1  0
  7 12  1  0
  7 13  1  0
  8 14  1  0
 11 17  1  0
 11 18  1  0
 11 19  1  0
 12 20  1  0
 12 21  1  0
 12 22  1  0
 13 23  1  0
 13 24  1  0
 13 25  1  0
 14 26  1  0
 14 27  1  0
 14 28  1  0
M  END
> <activity>
0

$$$$
ligand_548
  SciTegic10272118463D

 13 14  0  0  1  0            999 V2000
    6.3356   26.5427   50.3083 N   0  0
    7.0978   26.3182   52.3642 C   0  0
    7.4785   26.5464   51.0785 N   0  0
    5.6880   26.1602   52.4152 C   0  0
    5.2728   26.3117   51.1037 N   0  0
    7.8853   26.2389   53.4419 N   0  0
    5.0371   25.9068   53.6272 C   0  0
    5.8673   25.8274   54.7513 C   0  0
    7.2492   25.9969   54.6206 C   0  0
    5.1127   25.4878   56.4640 Br  0  0
    4.3370   26.2560   50.7172 H   0  0
    3.9666   25.7790   53.6994 H   0  0
    7.8814   25.9367   55.4944 H   0  0
  1  3  2  0
  1  5  1  0
  2  3  1  0
  2  4  2  0
  2  6  1  0
  4  5  1  0
  4  7  1  0
  5 11  1  0
  6  9  2  0
  7  8  2  0
  7 12  1  0
  8  9  1  0
  8 10  1  0
  9 13  1  0
M  END
> <activity>
0

$$$$
ligand_549
  SciTegic10272118463D

 36 36  0  0  1  0            999 V2000
    6.1589   28.0036   53.1475 C   0  0  2  0  0  0
    5.2088   27.0847   52.2911 C   0  0  2  0  0  0
    4.3619   29.4499   50.8881 C   0  0
    5.5801   29.9982   51.1743 C   0  0
    6.8110   29.4149   52.2880 S   0  0
    3.7307   27.9218   51.5899 S   0  0
    7.4605   27.3414   53.7371 C   0  0
    4.7033   25.8927   53.1573 C   0  0
    3.4078   30.1159   49.9678 C   0  0
    6.1237   31.2164   50.5767 C   0  0
    5.1058   28.7059   54.6876 Br  0  0
    6.1899   26.2219   50.7699 Br  0  0
    8.2107   26.6503   53.0395 O   0  0
    3.5253   25.7578   53.4878 O   0  0
    3.1672   31.3279   49.9990 O   0  0
    6.7055   31.2094   49.4890 O   0  0
    7.6589   27.5355   55.0650 O   0  0
    5.7045   25.1134   53.6001 O   0  0
    2.8404   29.2605   49.0854 O   0  0
    6.0555   32.2655   51.4314 O   0  0
    6.8769   33.4071   51.2510 C   0  0
    8.6858   26.8411   55.7602 C   0  0
    1.9275   29.7315   48.1022 C   0  0
    5.5110   24.1583   54.6199 C   0  0
    6.6654   34.1408   52.0297 H   0  0
    6.7057   33.8786   50.2880 H   0  0
    7.9347   33.1404   51.3125 H   0  0
    8.5566   26.9627   56.8360 H   0  0
    9.6696   27.2216   55.4890 H   0  0
    8.6551   25.7697   55.5492 H   0  0
    1.5897   28.8975   47.4887 H   0  0
    2.4021   30.4636   47.4475 H   0  0
    1.0533   30.1887   48.5661 H   0  0
    6.4847   23.7447   54.8744 H   0  0
    4.8548   23.3537   54.2877 H   0  0
    5.1068   24.6211   55.5201 H   0  0
  1  2  1  0
  1  5  1  0
  1  7  1  0
  1 11  1  0
  2  6  1  0
  2  8  1  0
  2 12  1  0
  3  4  2  0
  3  6  1  0
  3  9  1  0
  4  5  1  0
  4 10  1  0
  7 13  2  0
  7 17  1  0
  8 14  2  0
  8 18  1  0
  9 15  2  0
  9 19  1  0
 10 16  2  0
 10 20  1  0
 17 22  1  0
 18 24  1  0
 19 23  1  0
 20 21  1  0
 21 25  1  0
 21 26  1  0
 21 27  1  0
 22 28  1  0
 22 29  1  0
 22 30  1  0
 23 31  1  0
 23 32  1  0
 23 33  1  0
 24 34  1  0
 24 35  1  0
 24 36  1  0
M  END
> <activity>
0

$$$$
ligand_550
  SciTegic10272118463D

 26 29  0  0  1  0            999 V2000
    5.3044   30.0188   52.8117 C   0  0
    5.4477   28.6814   52.3245 C   0  0
    4.5792   31.0450   51.9904 C   0  0
    4.7546   28.2518   51.1547 C   0  0
    5.9055   30.3009   54.0554 C   0  0
    3.7405   30.5384   50.8623 C   0  0
    3.8200   29.1976   50.4503 C   0  0
    6.2604   27.7125   52.9847 C   0  0
    6.7060   29.3530   54.6869 C   0  0
    6.9185   28.0836   54.1735 C   0  0
    4.8959   26.9870   50.6878 N   0  0
    6.4077   26.4513   52.4933 N   0  0
    4.6960   32.2527   52.1947 O   0  0
    5.7110   26.1583   51.3739 C   0  0
    5.7273   31.9723   54.9693 Br  0  0
    8.0835   26.8884   55.1020 Br  0  0
    2.8978   31.4183   50.1748 C   0  0
    3.0229   28.7806   49.3793 C   0  0
    2.1229   30.9844   49.1103 C   0  0
    2.1829   29.6602   48.7141 C   0  0
    7.2311   29.6296   55.5836 H   0  0
    5.8034   25.1521   51.0010 H   0  0
    2.8333   32.4583   50.4649 H   0  0
    3.0537   27.7560   49.0432 H   0  0
    1.4755   31.6769   48.5923 H   0  0
    1.5810   29.3120   47.8874 H   0  0
  1  2  1  0
  1  3  1  0
  1  5  2  0
  2  4  2  0
  2  8  1  0
  3  6  1  0
  3 13  2  0
  4  7  1  0
  4 11  1  0
  5  9  1  0
  5 15  1  0
  6  7  2  0
  6 17  1  0
  7 18  1  0
  8 10  1  0
  8 12  2  0
  9 10  2  0
  9 21  1  0
 10 16  1  0
 11 14  2  0
 12 14  1  0
 14 22  1  0
 17 19  2  0
 17 23  1  0
 18 20  2  0
 18 24  1  0
 19 20  1  0
 19 25  1  0
 20 26  1  0
M  END
> <activity>
0

$$$$
ligand_551
  SciTegic10272118463D

 24 24  0  0  1  0            999 V2000
    6.0444   27.1394   52.6597 C   0  0
    4.6699   26.8933   52.6304 C   0  0
    6.3582   28.0859   51.7200 N   0  0
    5.2052   28.4779   51.0982 C   0  0
    4.1471   27.7481   51.6287 C   0  0
    7.1352   26.6067   53.4674 C   0  0
    5.2712   29.5176   50.0816 C   0  0
    8.3060   26.5581   53.0874 O   0  0
    2.3240   27.8899   51.0880 Br  0  0
    6.3059   30.1098   49.7673 O   0  0
    3.9138   25.9022   53.4877 C   0  0
    6.6972   26.2369   54.6890 O   0  0
    7.6124   25.7793   55.6749 C   0  0
    6.8406   25.3247   56.9158 C   0  0
    7.2817   28.4535   51.5368 H   0  0
    4.3153   29.7415   49.6084 H   0  0
    2.8962   25.7578   53.1316 H   0  0
    3.8566   26.2296   54.5260 H   0  0
    4.3913   24.9209   53.4867 H   0  0
    8.3046   26.5804   55.9381 H   0  0
    8.2094   24.9578   55.2804 H   0  0
    7.5162   24.9147   57.6664 H   0  0
    6.1076   24.5580   56.6665 H   0  0
    6.3057   26.1575   57.3709 H   0  0
  1  2  2  0
  1  3  1  0
  1  6  1  0
  2  5  1  0
  2 11  1  0
  3  4  1  0
  3 15  1  0
  4  5  2  0
  4  7  1  0
  5  9  1  0
  6  8  2  0
  6 12  1  0
  7 10  2  0
  7 16  1  0
 11 17  1  0
 11 18  1  0
 11 19  1  0
 12 13  1  0
 13 14  1  0
 13 20  1  0
 13 21  1  0
 14 22  1  0
 14 23  1  0
 14 24  1  0
M  END
> <activity>
0

$$$$
ligand_552
  SciTegic10272118463D

 32 33  0  0  1  0            999 V2000
    6.4255   28.1111   52.4061 C   0  0
    5.3784   26.3042   53.9821 N   0  3
    6.6399   26.8303   53.2412 C   0  0  2  0  0  0
    6.4482   28.1093   50.9953 C   0  0
    6.3043   29.2318   50.2522 N   0  0
    6.2660   29.3563   53.0347 C   0  0
    6.1144   30.4111   50.8909 C   0  0
    6.7086   26.9660   50.2493 N   0  0
    6.0902   30.5145   52.2777 C   0  0
    5.9951   25.1936   54.8661 C   0  0
    4.3079   25.7552   53.0215 C   0  0
    4.7027   27.3580   54.8802 C   0  0
    5.8500   32.2038   53.1208 Br  0  0
    7.7322   26.8495   54.3214 C   0  0
    7.3532   25.7529   55.3236 C   0  0
    6.8762   26.0015   52.5738 H   0  0
    6.2765   29.4457   54.1098 H   0  0
    5.9918   31.2895   50.2716 H   0  0
    6.9631   26.1246   50.7396 H   0  0
    7.1068   27.1471   49.3377 H   0  0
    6.1240   24.3183   54.2265 H   0  0
    5.3109   24.9499   55.6811 H   0  0
    3.9671   26.5748   52.3861 H   0  0
    3.4947   25.3590   53.6298 H   0  0
    4.7520   24.9627   52.4208 H   0  0
    4.2195   28.0974   54.2413 H   0  0
    5.4763   27.8090   55.4878 H   0  0
    3.9640   26.8482   55.4997 H   0  0
    8.7059   26.6775   53.8740 H   0  0
    7.7922   27.8166   54.8257 H   0  0
    7.2827   26.1567   56.3360 H   0  0
    8.1044   24.9631   55.3535 H   0  0
  1  3  1  0
  1  4  2  0
  1  6  1  0
  2  3  1  0
  2 10  1  0
  2 11  1  0
  2 12  1  0
  3 14  1  0
  3 16  1  0
  4  5  1  0
  4  8  1  0
  5  7  2  0
  6  9  2  0
  6 17  1  0
  7  9  1  0
  7 18  1  0
  8 19  1  0
  8 20  1  0
  9 13  1  0
 10 15  1  0
 10 21  1  0
 10 22  1  0
 11 23  1  0
 11 24  1  0
 11 25  1  0
 12 26  1  0
 12 27  1  0
 12 28  1  0
 14 15  1  0
 14 29  1  0
 14 30  1  0
 15 31  1  0
 15 32  1  0
M  CHG  1   2   1
M  END
> <activity>
0

$$$$
ligand_553
  SciTegic10272118463D

 39 40  0  0  1  0            999 V2000
    1.5320   29.2427   49.4125 N   0  0
    2.2628   30.3849   49.4565 C   0  0
    3.1608   30.1146   50.4555 N   0  0
    2.9818   28.8426   50.9383 C   0  0
    1.7563   28.3609   50.3871 C   0  0
    3.6580   27.9838   51.7464 C   0  0
    4.9349   28.0965   52.4507 C   0  0
    7.0746   27.1513   53.0627 C   0  0
    4.0757   31.1020   51.0623 C   0  0
    5.9451   27.1479   52.2473 C   0  0
    2.0435   31.7571   48.5251 S   0  0
    7.2260   28.1274   54.0465 C   0  0
    5.1124   29.0844   53.4101 C   0  0
    6.2754   29.1480   54.1823 C   0  0
    5.5424   30.9600   50.6383 C   0  0
    1.1059   27.3596   50.6881 O   0  0
    5.9492   30.0850   49.8699 O   0  0
    0.5480   28.9016   48.3885 C   0  0
    5.7908   25.8029   50.9039 Br  0  0
    8.3054   28.0631   54.8891 O   0  0
    6.5174   30.1594   55.0880 O   0  0
    6.2889   31.9195   51.2174 O   0  0
    5.7097   31.3323   55.0743 C   0  0
    7.6894   31.9812   51.0084 C   0  0
    3.2153   27.0098   51.9279 H   0  0
    7.8211   26.3840   52.9306 H   0  0
    3.9837   31.0984   52.1410 H   0  0
    3.7710   32.1084   50.7767 H   0  0
    4.3063   29.7776   53.5756 H   0  0
   -0.0763   28.0389   48.6262 H   0  0
    1.1130   28.6715   47.4894 H   0  0
   -0.0968   29.7518   48.1769 H   0  0
    8.7603   27.2212   54.8728 H   0  0
    6.1378   32.0712   55.7512 H   0  0
    4.6998   31.1205   55.4222 H   0  0
    5.6654   31.7833   54.0816 H   0  0
    8.0895   32.8951   51.4470 H   0  0
    7.9367   31.9799   49.9462 H   0  0
    8.1826   31.1358   51.4871 H   0  0
  1  2  1  0
  1  5  1  0
  1 18  1  0
  2  3  1  0
  2 11  2  0
  3  4  1  0
  3  9  1  0
  4  5  1  0
  4  6  2  0
  5 16  2  0
  6  7  1  0
  6 25  1  0
  7 10  1  0
  7 13  2  0
  8 10  2  0
  8 12  1  0
  8 26  1  0
  9 15  1  0
  9 27  1  0
  9 28  1  0
 10 19  1  0
 12 14  2  0
 12 20  1  0
 13 14  1  0
 13 29  1  0
 14 21  1  0
 15 17  2  0
 15 22  1  0
 18 30  1  0
 18 31  1  0
 18 32  1  0
 20 33  1  0
 21 23  1  0
 22 24  1  0
 23 34  1  0
 23 35  1  0
 23 36  1  0
 24 37  1  0
 24 38  1  0
 24 39  1  0
M  END
> <activity>
0

$$$$
ligand_554
  SciTegic10272118463D

 21 22  0  0  1  0            999 V2000
    6.4894   27.3475   52.2088 C   0  0
    6.3054   27.9668   53.4688 C   0  0
    6.4733   28.1099   51.0168 C   0  0
    6.2636   29.4937   51.0606 C   0  0
    6.0582   29.3508   53.4787 C   0  0
    6.0403   30.0917   52.2977 C   0  0
    6.7038   26.0402   51.8992 N   0  0
    6.7057   27.3106   49.9424 N   0  0
    6.8455   26.0460   50.5113 O   0  0
    6.3257   27.2614   54.6880 N   0  0
    7.2938   26.4124   55.0861 C   0  0
    8.3045   26.1584   54.4299 O   0  0
    6.3065   30.5581   49.4878 Br  0  0
    5.8645   30.0259   54.6572 O   0  0
    7.1062   25.7506   56.4475 C   0  0
    5.8708   31.1582   52.3358 H   0  0
    5.5888   27.4857   55.3408 H   0  0
    5.6483   30.9519   54.5354 H   0  0
    6.1388   25.9967   56.8878 H   0  0
    7.8908   26.0752   57.1333 H   0  0
    7.1664   24.6651   56.3458 H   0  0
  1  2  1  0
  1  3  1  0
  1  7  2  0
  2  5  2  0
  2 10  1  0
  3  4  1  0
  3  8  2  0
  4  6  2  0
  4 13  1  0
  5  6  1  0
  5 14  1  0
  6 16  1  0
  7  9  1  0
  8  9  1  0
 10 11  1  0
 10 17  1  0
 11 12  2  0
 11 15  1  0
 14 18  1  0
 15 19  1  0
 15 20  1  0
 15 21  1  0
M  END
> <activity>
0

$$$$
ligand_555
  SciTegic10272118463D

 26 25  0  0  1  0            999 V2000
    5.8998   24.9583   56.6794 C   0  0
    5.9142   24.3371   57.8336 C   0  0
    5.8191   25.4983   55.4884 C   0  0
    4.7065   27.0986   55.1692 Br  0  0
    6.6456   25.3576   60.0723 N   0  3
    7.0184   24.4629   58.8705 C   0  0
    7.7282   25.5695   53.9190 O   0  0
    6.4840   24.9405   54.2340 C   0  0
    5.3175   24.9572   60.7585 C   0  0
    7.8007   25.4462   61.0894 C   0  0
    7.6390   26.9116   53.4578 C   0  0
    5.1118   23.6565   58.0813 H   0  0
    6.5101   26.2883   59.6989 H   0  0
    7.2691   23.4867   59.2897 H   0  0
    7.9261   24.9092   58.4547 H   0  0
    5.7929   24.9898   53.3905 H   0  0
    6.6953   23.8796   54.3806 H   0  0
    5.0968   25.7186   61.5062 H   0  0
    5.4428   23.9716   61.2103 H   0  0
    4.5210   24.9519   60.0134 H   0  0
    7.5064   26.1696   61.8527 H   0  0
    8.6950   25.7841   60.5617 H   0  0
    7.9521   24.4552   61.5204 H   0  0
    8.6112   27.2277   53.0853 H   0  0
    7.3649   27.5946   54.2618 H   0  0
    6.9223   27.0158   52.6412 H   0  0
  1  2  2  0
  1  3  2  0
  2  6  1  0
  2 12  1  0
  3  4  1  0
  3  8  1  0
  5  6  1  0
  5  9  1  0
  5 10  1  0
  5 13  1  0
  6 14  1  0
  6 15  1  0
  7  8  1  0
  7 11  1  0
  8 16  1  0
  8 17  1  0
  9 18  1  0
  9 19  1  0
  9 20  1  0
 10 21  1  0
 10 22  1  0
 10 23  1  0
 11 24  1  0
 11 25  1  0
 11 26  1  0
M  CHG  1   5   1
M  END
> <activity>
0

$$$$
ligand_556
  SciTegic10272118463D

 39 41  0  0  1  0            999 V2000
   -0.8624   32.5265   50.6871 C   0  0
    0.1023   31.7662   50.0544 C   0  0
   -1.2895   33.8110   50.1146 C   0  0
   -2.2324   34.3340   50.9287 N   0  0
    1.5816   29.9848   49.7126 N   0  0
    1.7928   30.6074   48.5239 C   0  0
    0.6107   30.4794   50.5167 C   0  0
    0.9060   32.0932   48.4993 S   0  0
   -1.6923   32.3948   51.9212 C   0  0
   -2.5002   33.5127   51.9978 C   0  0
   -2.8382   35.6584   50.6732 C   0  0
    2.7060   30.1580   47.2202 S   0  0
   -3.4250   33.7185   53.0247 C   0  0
   -0.8927   34.3619   49.0874 O   0  0
   -2.3026   36.7564   51.6105 C   0  0
    0.2209   29.8548   51.4877 O   0  0
   -1.8232   31.4487   52.9448 C   0  0
    6.1578   29.6588   50.6071 C   0  0
   -1.3379   36.5058   52.3693 O   0  0
    7.0545   30.1578   49.8879 O   0  0
    2.3158   28.7393   50.0812 C   0  0
   -2.7440   31.6256   53.9744 C   0  0
   -3.5491   32.7583   54.0209 C   0  0
   -2.8928   37.8556   51.5439 O   0  5
    6.3292   29.1838   51.7520 O   0  5
   -2.8930   30.2956   55.3287 Br  0  0
    3.6471   28.9707   50.8467 C   0  0
    4.7562   29.6295   49.9851 C   0  0
   -2.6566   35.9796   49.6469 H   0  0
   -3.9159   35.5762   50.8099 H   0  0
   -4.0377   34.6075   53.0625 H   0  0
   -1.2438   30.5581   53.0096 H   0  0
    2.5084   28.1316   49.1959 H   0  0
    1.6773   28.1010   50.6945 H   0  0
   -4.2565   32.8929   54.8262 H   0  0
    3.9961   27.9983   51.1996 H   0  0
    3.4627   29.5680   51.7419 H   0  0
    4.4844   30.6574   49.7470 H   0  0
    4.8536   29.0854   49.0458 H   0  0
  1  2  2  0
  1  3  1  0
  1  9  1  0
  2  7  1  0
  2  8  1  0
  3  4  1  0
  3 14  2  0
  4 10  1  0
  4 11  1  0
  5  6  1  0
  5  7  1  0
  5 21  1  0
  6  8  1  0
  6 12  2  0
  7 16  2  0
  9 10  2  0
  9 17  1  0
 10 13  1  0
 11 15  1  0
 11 29  1  0
 11 30  1  0
 13 23  2  0
 13 31  1  0
 15 19  2  0
 15 24  1  0
 17 22  2  0
 17 32  1  0
 18 20  2  0
 18 25  1  0
 18 28  1  0
 21 27  1  0
 21 33  1  0
 21 34  1  0
 22 23  1  0
 22 26  1  0
 23 35  1  0
 27 28  1  0
 27 36  1  0
 27 37  1  0
 28 38  1  0
 28 39  1  0
M  CHG  2  24  -1  25  -1
M  END
> <activity>
0

$$$$
ligand_557
  SciTegic10272118463D

 43 45  0  0  1  0            999 V2000
    4.4556   29.7483   51.0726 C   0  0
    5.2192   30.7687   52.9314 N   0  0
    5.3422   28.8511   51.7400 C   0  0
    4.4050   30.9053   51.8007 C   0  0
    5.8159   29.4831   52.9467 C   0  0
    6.7061   28.7692   53.8241 C   0  0
    5.7804   27.5626   51.4184 C   0  0
    7.1122   27.4916   53.4291 C   0  0
    6.6975   26.9343   52.2368 C   0  0
    3.7426   29.4973   49.8316 C   0  0
    5.3065   31.7808   53.9160 C   0  0
    7.5060   29.3580   55.4668 Br  0  0
    4.3036   29.3580   48.7463 O   0  0
    8.3060   26.4512   54.5120 Br  0  0
    5.3394   26.9271   50.2880 O   0  0
    7.2475   25.7580   51.8388 O   0  0
    3.6092   32.1574   51.4403 C   0  0
    2.4190   29.3737   50.0695 O   0  0
    5.5060   33.1191   53.5779 C   0  0
    5.1059   31.4517   55.2449 C   0  0
    1.5027   29.0889   49.0183 C   0  0
    8.3059   25.9350   50.9181 C   0  0
    1.0982   30.3729   48.2797 C   0  0
    5.4661   34.0994   54.5596 C   0  0
    5.1034   32.4196   56.2358 C   0  0
    5.2809   33.7465   55.8876 C   0  0
    4.6052   27.3701   49.8478 H   0  0
    2.7491   31.9329   50.8100 H   0  0
    4.2237   32.8484   50.8632 H   0  0
    3.1993   32.6949   52.2880 H   0  0
    5.6871   33.4142   52.5552 H   0  0
    4.8915   30.4289   55.4880 H   0  0
    0.6186   28.6311   49.4614 H   0  0
    1.9161   28.3548   48.3235 H   0  0
    9.1059   26.5379   51.3498 H   0  0
    7.9780   26.3868   49.9803 H   0  0
    8.7059   24.9584   50.6880 H   0  0
    0.3526   30.1581   47.5163 H   0  0
    1.9542   30.8334   47.7853 H   0  0
    0.6722   31.1044   48.9666 H   0  0
    5.6034   35.1330   54.2885 H   0  0
    4.9396   32.1407   57.2666 H   0  0
    5.2782   34.4988   56.6534 H   0  0
  1  3  1  0
  1  4  2  0
  1 10  1  0
  2  4  1  0
  2  5  1  0
  2 11  1  0
  3  5  2  0
  3  7  1  0
  4 17  1  0
  5  6  1  0
  6  8  2  0
  6 12  1  0
  7  9  2  0
  7 15  1  0
  8  9  1  0
  8 14  1  0
  9 16  1  0
 10 13  2  0
 10 18  1  0
 11 19  2  0
 11 20  1  0
 15 27  1  0
 16 22  1  0
 17 28  1  0
 17 29  1  0
 17 30  1  0
 18 21  1  0
 19 24  1  0
 19 31  1  0
 20 25  2  0
 20 32  1  0
 21 23  1  0
 21 33  1  0
 21 34  1  0
 22 35  1  0
 22 36  1  0
 22 37  1  0
 23 38  1  0
 23 39  1  0
 23 40  1  0
 24 26  2  0
 24 41  1  0
 25 26  1  0
 25 42  1  0
 26 43  1  0
M  END
> <activity>
0

$$$$
ligand_558
  SciTegic10272118463D

 34 35  0  0  1  0            999 V2000
    6.8821   26.5531   52.8576 S   0  0
    5.4208   28.8367   52.4556 C   0  0  2  0  0  0
    6.0287   28.0268   53.6334 C   0  0  1  0  0  0
    3.9079   28.8684   50.2618 C   0  0
    3.7824   28.2595   51.8888 S   0  0
    6.3280   28.6340   51.2240 C   0  0  1  0  0  0
    6.6713   27.1325   51.0934 C   0  0
    5.5059   29.3589   49.7775 S   0  0
    2.8357   28.9466   49.4475 N   0  3
    6.0729   25.3580   53.0877 O   0  0
    8.3047   26.5577   53.2092 O   0  0
    4.7061   27.4379   55.0148 Br  0  0
    5.3083   30.3194   52.8902 C   0  0
    2.9278   29.4353   48.0273 C   0  0
    1.4565   28.5626   49.9112 C   0  0
    0.8516   29.6396   50.8389 C   0  0
    2.5251   30.9182   47.9132 C   0  0
    6.7944   28.5833   54.1732 H   0  0
    7.2475   29.2011   51.3662 H   0  0
    7.5735   26.9231   50.5213 H   0  0
    5.8470   26.5535   50.6765 H   0  0
    6.2913   30.7426   53.1071 H   0  0
    4.7067   30.4221   53.7930 H   0  0
    4.8504   30.9510   52.1279 H   0  0
    2.2680   28.8010   47.4340 H   0  0
    3.9349   29.2548   47.6511 H   0  0
    0.8341   28.4288   49.0254 H   0  0
    1.5267   27.5843   50.3931 H   0  0
   -0.1470   29.3580   51.1576 H   0  0
    0.7763   30.6077   50.3454 H   0  0
    1.4347   29.7750   51.7498 H   0  0
    2.7027   31.2876   46.9014 H   0  0
    3.0981   31.5465   48.6011 H   0  0
    1.4667   31.0623   48.1314 H   0  0
  1  3  1  0
  1  7  1  0
  1 10  2  0
  1 11  2  0
  2  3  1  0
  2  5  1  0
  2  6  1  0
  2 13  1  0
  3 12  1  0
  3 18  1  0
  4  5  1  0
  4  8  1  0
  4  9  2  0
  6  7  1  0
  6  8  1  0
  6 19  1  0
  7 20  1  0
  7 21  1  0
  9 14  1  0
  9 15  1  0
 13 22  1  0
 13 23  1  0
 13 24  1  0
 14 17  1  0
 14 25  1  0
 14 26  1  0
 15 16  1  0
 15 27  1  0
 15 28  1  0
 16 29  1  0
 16 30  1  0
 16 31  1  0
 17 32  1  0
 17 33  1  0
 17 34  1  0
M  CHG  1   9   1
M  END
> <activity>
0

$$$$
ligand_559
  SciTegic10272118463D

 48 49  0  0  1  0            999 V2000
    3.6765   30.3200   50.8371 C   0  0
   -1.1226   33.9276   50.4276 C   0  0
   -1.6537   33.8280   49.1197 C   0  0
    3.1662   29.0032   50.9752 C   0  0
    1.4070   31.0767   50.2865 C   0  0
    0.4264   32.1047   49.8716 C   0  0
    2.7631   31.3429   50.4932 C   0  0
   -0.0940   33.0300   50.7777 C   0  0
    1.8010   28.7529   50.8145 C   0  0
   -1.1616   32.8724   48.2224 C   0  0
   -0.0940   32.0625   48.5833 C   0  0
    0.9485   29.7797   50.4603 C   0  0
    5.1885   30.6427   51.0490 C   0  0
   -1.6424   34.9789   51.4607 C   0  0
    1.0275   27.0331   51.0880 Br  0  0
   -1.9830   32.5570   46.5276 Br  0  0
   -2.6605   34.6508   48.6882 O   0  0
    3.9655   27.9277   51.2653 O   0  0
   -1.2700   36.4041   50.9832 C   0  0
    5.6318   30.2486   52.4808 C   0  0
    5.5222   32.1536   50.8971 C   0  0
    6.0588   29.8970   50.0051 C   0  0
   -3.1779   34.8680   51.6653 C   0  0
   -1.0253   34.8034   52.8778 C   0  0
    3.0844   32.3635   50.3603 H   0  0
    0.3249   33.0254   51.7688 H   0  0
    0.2695   31.3209   47.8866 H   0  0
   -0.0941   29.5615   50.3211 H   0  0
   -2.8816   35.3258   49.3326 H   0  0
    3.5038   27.0993   51.1017 H   0  0
   -1.5886   37.1643   51.6994 H   0  0
   -1.7255   36.6649   50.0287 H   0  0
   -0.1904   36.5110   50.8612 H   0  0
    5.5797   29.1773   52.6667 H   0  0
    5.0152   30.7381   53.2371 H   0  0
    6.6652   30.5373   52.6700 H   0  0
    5.2652   32.5314   49.9072 H   0  0
    6.5874   32.3496   51.0365 H   0  0
    4.9968   32.7593   51.6364 H   0  0
    5.7666   30.1549   48.9866 H   0  0
    5.9935   28.8139   50.0946 H   0  0
    7.1136   30.1503   50.1161 H   0  0
   -3.5168   35.4877   52.4971 H   0  0
   -3.4753   33.8431   51.8918 H   0  0
   -3.7595   35.1987   50.8090 H   0  0
   -1.4134   35.5405   53.5818 H   0  0
    0.0572   34.9279   52.8755 H   0  0
   -1.2478   33.8212   53.2974 H   0  0
  1  4  1  0
  1  7  2  0
  1 13  1  0
  2  3  1  0
  2  8  2  0
  2 14  1  0
  3 10  2  0
  3 17  1  0
  4  9  2  0
  4 18  1  0
  5  6  1  0
  5  7  1  0
  5 12  2  0
  6  8  1  0
  6 11  2  0
  7 25  1  0
  8 26  1  0
  9 12  1  0
  9 15  1  0
 10 11  1  0
 10 16  1  0
 11 27  1  0
 12 28  1  0
 13 20  1  0
 13 21  1  0
 13 22  1  0
 14 19  1  0
 14 23  1  0
 14 24  1  0
 17 29  1  0
 18 30  1  0
 19 31  1  0
 19 32  1  0
 19 33  1  0
 20 34  1  0
 20 35  1  0
 20 36  1  0
 21 37  1  0
 21 38  1  0
 21 39  1  0
 22 40  1  0
 22 41  1  0
 22 42  1  0
 23 43  1  0
 23 44  1  0
 23 45  1  0
 24 46  1  0
 24 47  1  0
 24 48  1  0
M  END
> <activity>
0

$$$$
ligand_560
  SciTegic10272118463D

 34 37  0  0  1  0            999 V2000
    6.5773   27.8351   51.1648 C   0  0
    7.4369   26.6157   51.2376 N   0  3
    6.3060   28.6888   52.2510 C   0  0
    5.5125   29.8760   52.0251 C   0  0
    6.0119   28.1580   49.9316 C   0  0
    5.3502   30.8431   53.0554 C   0  0
    4.8772   30.0997   50.7762 C   0  0
    4.6248   32.0403   52.8302 C   0  0
    5.9060   30.5997   54.3311 C   0  0
    5.1027   29.1898   49.7391 C   0  0
    5.0367   32.7192   55.1370 C   0  0
    4.5917   33.4892   56.3320 C   0  0
    5.7659   31.5532   55.3256 C   0  0
    4.5528   33.0143   53.8615 C   0  0
    6.8282   28.4560   53.6124 C   0  0
    4.0383   31.2219   50.6153 C   0  0
    7.2737   25.7580   50.3774 O   0  5
    8.3059   26.5124   52.0983 O   0  0
    6.6502   29.3579   54.5792 C   0  0
    3.9128   32.1580   51.6213 C   0  0
    3.5567   34.1580   56.3554 O   0  0
    4.1586   29.3580   48.0880 Br  0  0
    5.4331   33.3521   57.3883 O   0  0
    5.0411   33.7580   58.6862 C   0  0
    6.3060   27.5733   49.0880 H   0  0
    6.1907   31.3580   56.2880 H   0  0
    3.9549   33.9001   53.6959 H   0  0
    7.3707   27.5667   53.8807 H   0  0
    3.4946   31.3766   49.6960 H   0  0
    7.1060   29.1677   55.5322 H   0  0
    3.2150   32.9580   51.4734 H   0  0
    5.9060   33.7580   59.3485 H   0  0
    4.3049   33.0602   59.0880 H   0  0
    4.6038   34.7557   58.6878 H   0  0
  1  2  1  0
  1  3  2  0
  1  5  1  0
  2 17  1  0
  2 18  2  0
  3  4  1  0
  3 15  1  0
  4  6  2  0
  4  7  1  0
  5 10  2  0
  5 25  1  0
  6  8  1  0
  6  9  1  0
  7 10  1  0
  7 16  2  0
  8 14  1  0
  8 20  2  0
  9 13  2  0
  9 19  1  0
 10 22  1  0
 11 12  1  0
 11 13  1  0
 11 14  2  0
 12 21  2  0
 12 23  1  0
 13 26  1  0
 14 27  1  0
 15 19  2  0
 15 28  1  0
 16 20  1  0
 16 29  1  0
 19 30  1  0
 20 31  1  0
 23 24  1  0
 24 32  1  0
 24 33  1  0
 24 34  1  0
M  CHG  2   2   1  17  -1
M  END
> <activity>
0

$$$$
ligand_561
  SciTegic10272118463D

 47 50  0  0  1  0            999 V2000
    6.3839   31.8919   50.5267 N   0  3
    5.3793   30.8145   50.6150 C   0  0
   -1.9294   34.9529   50.0963 C   0  0
    3.0348   30.1084   50.7011 C   0  0
    5.7822   29.4838   50.7515 C   0  0
    4.8364   28.4693   50.8808 C   0  0
   -0.5737   32.8161   49.8472 C   0  0
    3.4672   28.7764   50.8730 C   0  0
    4.0138   31.1096   50.5732 C   0  0
   -1.5022   33.5857   50.4409 N   0  0
    1.1627   31.5939   50.2878 N   0  0
    6.1389   32.9577   51.0861 O   0  5
    7.4081   31.6706   49.8892 O   0  0
   -3.3650   36.9276   50.9331 C   0  0  1  0  0  0
   -3.2071   36.4701   48.4492 C   0  0  2  0  0  0
   -1.2085   37.3993   49.6976 C   0  0  2  0  0  0
   -0.0998   31.8393   50.5943 N   0  5
    1.6009   30.4684   50.6963 C   0  0
   -2.7260   35.0268   48.7546 C   0  0
   -2.8738   35.4852   51.2202 C   0  0
   -0.7325   35.9557   49.9947 C   0  0
   -0.2276   33.0870   48.6885 O   0  0
   -2.1413   37.8747   50.8398 C   0  0
   -1.9838   37.4180   48.3558 C   0  0
   -4.1377   36.9519   49.5907 C   0  0
    5.4572   26.6763   51.0886 Br  0  0
    2.5630   27.7580   51.0579 O   0  0
    6.8338   29.2368   50.7811 H   0  0
    3.7173   32.1450   50.4601 H   0  0
   -1.7714   33.2694   51.3589 H   0  0
   -4.0211   37.2595   51.7383 H   0  0
   -3.7521   36.4826   47.5048 H   0  0
   -0.3460   38.0652   49.6305 H   0  0
    0.9469   29.7044   51.1058 H   0  0
   -2.1139   34.6654   47.9287 H   0  0
   -3.5826   34.3524   48.7820 H   0  0
   -2.3584   35.4623   52.1828 H   0  0
   -3.7327   34.8238   51.3360 H   0  0
   -0.1467   35.9383   50.9150 H   0  0
   -0.0424   35.6462   49.2074 H   0  0
   -1.6021   37.8908   51.7877 H   0  0
   -2.4668   38.9000   50.6627 H   0  0
   -2.3046   38.4328   48.1175 H   0  0
   -1.3276   37.1128   47.5411 H   0  0
   -4.5079   37.9554   49.3818 H   0  0
   -5.0192   36.3128   49.6540 H   0  0
    2.8281   26.9270   50.6365 H   0  0
  1  2  1  0
  1 12  1  0
  1 13  2  0
  2  5  2  0
  2  9  1  0
  3 10  1  0
  3 19  1  0
  3 20  1  0
  3 21  1  0
  4  8  1  0
  4  9  2  0
  4 18  1  0
  5  6  1  0
  5 28  1  0
  6  8  2  0
  6 26  1  0
  7 10  1  0
  7 17  1  0
  7 22  2  0
  8 27  1  0
  9 29  1  0
 10 30  1  0
 11 17  1  0
 11 18  2  0
 14 20  1  0
 14 23  1  0
 14 25  1  0
 14 31  1  0
 15 19  1  0
 15 24  1  0
 15 25  1  0
 15 32  1  0
 16 21  1  0
 16 23  1  0
 16 24  1  0
 16 33  1  0
 18 34  1  0
 19 35  1  0
 19 36  1  0
 20 37  1  0
 20 38  1  0
 21 39  1  0
 21 40  1  0
 23 41  1  0
 23 42  1  0
 24 43  1  0
 24 44  1  0
 25 45  1  0
 25 46  1  0
 27 47  1  0
M  CHG  3   1   1  12  -1  17  -1
M  END
> <activity>
0

$$$$
ligand_562
  SciTegic10272118463D

 47 49  0  0  1  0            999 V2000
    5.1518   29.6320   51.8386 C   0  0
    6.0248   28.4233   51.9202 C   0  0
    4.1804   29.6129   50.8918 N   0  0
    5.4364   30.6915   52.6397 N   0  0
    6.6336   27.9821   53.1126 C   0  0
    3.4344   30.7250   50.7337 C   0  0
    7.4703   26.8562   53.1084 C   0  0
    3.6761   31.8793   51.4877 C   0  0
    7.7175   26.1770   51.9161 C   0  0
    6.2721   27.6999   50.7467 C   0  0
    1.3262   31.2386   49.3061 N   0  0
    4.6951   31.8100   52.4443 C   0  0
   -2.2028   33.2687   47.9332 C   0  0
    7.1139   26.5998   50.7386 C   0  0
   -2.6360   34.3662   48.6878 C   0  0
    2.5127   30.5631   49.6898 N   0  0
   -1.0708   32.5589   48.3540 C   0  0
   -1.9862   34.6899   49.8866 C   0  0
    0.7811   32.1568   49.9953 C   0  0
    8.3060   26.2408   54.7092 Br  0  0
   -0.4099   32.8878   49.5448 C   0  0
    6.4294   28.6574   54.2880 O   0  0
    7.5068   25.7579   49.0880 Br  0  0
   -0.8941   33.9469   50.3154 C   0  0
   -2.9121   32.9578   46.7862 O   0  0
   -3.6943   35.0945   48.1766 O   0  0
    5.0594   32.9970   53.3145 C   0  0
   -2.2992   32.1461   45.7923 C   0  0
   -4.1471   36.2576   48.8612 C   0  0
    3.1399   32.7974   51.3270 H   0  0
    8.4126   25.3580   51.8883 H   0  0
    5.8359   28.0231   49.8129 H   0  0
    2.7141   29.7711   49.0976 H   0  0
   -0.7052   31.7348   47.7606 H   0  0
   -2.3079   35.5219   50.4939 H   0  0
    1.1476   32.4569   50.9691 H   0  0
    5.9821   29.4966   54.1245 H   0  0
   -0.4096   34.2266   51.2409 H   0  0
    5.4263   32.6724   54.2889 H   0  0
    4.1987   33.6433   53.4879 H   0  0
    5.8419   33.5863   52.8358 H   0  0
   -1.3359   32.5579   45.4871 H   0  0
   -2.9375   32.1147   44.9095 H   0  0
   -2.1612   31.1197   46.1345 H   0  0
   -4.9836   36.6910   48.3139 H   0  0
   -3.3652   37.0155   48.9240 H   0  0
   -4.5017   36.0208   49.8654 H   0  0
  1  2  1  0
  1  3  2  0
  1  4  1  0
  2  5  2  0
  2 10  1  0
  3  6  1  0
  4 12  2  0
  5  7  1  0
  5 22  1  0
  6  8  2  0
  6 16  1  0
  7  9  2  0
  7 20  1  0
  8 12  1  0
  8 30  1  0
  9 14  1  0
  9 31  1  0
 10 14  2  0
 10 32  1  0
 11 16  1  0
 11 19  2  0
 12 27  1  0
 13 15  2  0
 13 17  1  0
 13 25  1  0
 14 23  1  0
 15 18  1  0
 15 26  1  0
 16 33  1  0
 17 21  2  0
 17 34  1  0
 18 24  2  0
 18 35  1  0
 19 21  1  0
 19 36  1  0
 21 24  1  0
 22 37  1  0
 24 38  1  0
 25 28  1  0
 26 29  1  0
 27 39  1  0
 27 40  1  0
 27 41  1  0
 28 42  1  0
 28 43  1  0
 28 44  1  0
 29 45  1  0
 29 46  1  0
 29 47  1  0
M  END
> <activity>
0

$$$$
ligand_563
  SciTegic10272118463D

 57 62  0  0  1  0            999 V2000
   -0.1601   31.9259   49.8073 N   0  0
   -0.5108   32.9964   49.0224 C   0  0
   -0.6077   31.6696   51.0873 C   0  0
    3.9375   30.3566   50.4588 N   0  0
    5.1991   29.9160   52.5780 C   0  0
    4.5521   30.8022   51.6658 C   0  0
   -1.0203   34.2011   49.7954 C   0  0
   -1.2507   32.8465   51.7940 C   0  0
    5.5925   28.5139   52.2193 C   0  0
    5.9099   28.1529   51.0370 N   0  0
   -1.4026   34.1000   51.1559 C   0  0
    0.3571   30.8040   49.0784 N   0  0
    4.6071   29.6666   49.4882 C   0  0
    1.5214   30.1932   49.3797 C   0  0
    2.6109   30.9822   50.1471 C   0  0
    5.9662   29.0865   49.9200 C   0  0
    4.4513   32.1578   51.9961 C   0  0
    5.5062   30.4168   53.8594 C   0  0
   -0.4968   30.5580   51.6057 O   0  0
   -0.4940   32.9578   47.7897 O   0  0
    5.6647   27.4599   53.2586 C   0  0
    1.6682   29.0183   49.0559 O   0  0
    4.2488   29.5296   48.3187 O   0  0
   -1.9468   35.2088   51.8484 C   0  0
    5.2639   31.7483   54.1959 C   0  0
    4.7998   32.6336   53.2447 C   0  0
   -1.6941   32.6975   53.1124 C   0  0
   -1.1679   35.4315   49.1459 C   0  0
    5.5060   32.3855   55.9708 Br  0  0
   -2.2361   33.7779   53.8022 C   0  0
   -1.6719   36.5376   49.8233 C   0  0
   -2.0622   36.4361   51.1567 C   0  0
   -2.3544   35.0242   53.1898 C   0  0
    4.7012   27.3790   54.2576 C   0  0
    6.6619   26.4746   53.2179 C   0  0
    6.6869   25.4439   54.1488 C   0  0
    4.7074   26.3323   55.1642 C   0  0
    5.7027   25.3686   55.1220 C   0  0
   -0.3781   30.2798   48.6297 H   0  0
    2.1505   31.2714   51.0911 H   0  0
    2.7911   31.9064   49.5968 H   0  0
    6.3060   28.4890   49.0880 H   0  0
    6.7159   29.8668   50.0652 H   0  0
    4.0359   32.8493   51.2804 H   0  0
    5.9474   29.7817   54.6146 H   0  0
    4.6500   33.6747   53.4906 H   0  0
   -1.6048   31.7472   53.6213 H   0  0
   -0.8941   35.5493   48.1093 H   0  0
   -2.5625   33.6488   54.8244 H   0  0
   -1.7748   37.4799   49.3044 H   0  0
   -2.4694   37.2972   51.6677 H   0  0
   -2.7740   35.8574   53.7356 H   0  0
    3.9058   28.1067   54.3113 H   0  0
    7.4208   26.4954   52.4479 H   0  0
    7.4555   24.6870   54.0992 H   0  0
    3.9148   26.2682   55.8881 H   0  0
    5.7021   24.5586   55.8355 H   0  0
  1  2  1  0
  1  3  1  0
  1 12  1  0
  2  7  1  0
  2 20  2  0
  3  8  1  0
  3 19  2  0
  4  6  1  0
  4 13  1  0
  4 15  1  0
  5  6  2  0
  5  9  1  0
  5 18  1  0
  6 17  1  0
  7 11  2  0
  7 28  1  0
  8 11  1  0
  8 27  2  0
  9 10  2  0
  9 21  1  0
 10 16  1  0
 11 24  1  0
 12 14  1  0
 12 39  1  0
 13 16  1  0
 13 23  2  0
 14 15  1  0
 14 22  2  0
 15 40  1  0
 15 41  1  0
 16 42  1  0
 16 43  1  0
 17 26  2  0
 17 44  1  0
 18 25  2  0
 18 45  1  0
 21 34  2  0
 21 35  1  0
 24 32  2  0
 24 33  1  0
 25 26  1  0
 25 29  1  0
 26 46  1  0
 27 30  1  0
 27 47  1  0
 28 31  2  0
 28 48  1  0
 30 33  2  0
 30 49  1  0
 31 32  1  0
 31 50  1  0
 32 51  1  0
 33 52  1  0
 34 37  1  0
 34 53  1  0
 35 36  2  0
 35 54  1  0
 36 38  1  0
 36 55  1  0
 37 38  2  0
 37 56  1  0
 38 57  1  0
M  END
> <activity>
0

$$$$
ligand_564
  SciTegic10272118463D

 28 29  0  0  1  0            999 V2000
    5.6024   29.8664   53.1589 N   0  3
    4.7162   28.1891   51.2270 N   0  3
    5.1093   30.3943   52.0073 C   0  0
    4.5393   29.5240   51.0586 C   0  0
    5.7353   28.5207   53.3535 C   0  0
    5.2929   27.6468   52.3343 C   0  0
    5.9059   30.6615   54.0919 O   0  5
    4.3707   27.4293   50.2896 O   0  5
    5.1814   31.9120   51.7767 C   0  0  2  0  0  0
    3.7440   30.0366   49.8391 C   0  0  2  0  0  0
    4.7746   32.2817   50.3437 C   0  0
    3.4955   31.5588   49.9120 C   0  0
    6.3066   28.0183   54.6883 C   0  0
    5.4157   26.1157   52.4259 C   0  0
    1.9137   29.2440   49.7153 Br  0  0
    7.0375   32.6367   51.8879 Br  0  0
    7.9063   26.8505   54.5216 Br  0  0
    4.3063   25.3585   53.8881 Br  0  0
    4.5656   32.4315   52.5131 H   0  0
    4.2783   29.7724   48.9240 H   0  0
    4.6873   33.3584   50.2867 H   0  0
    5.5795   32.0113   49.6587 H   0  0
    3.1223   31.9304   48.9561 H   0  0
    2.7105   31.7766   50.6387 H   0  0
    6.6422   28.8362   55.3229 H   0  0
    5.5452   27.4778   55.2491 H   0  0
    5.1043   25.5959   51.5190 H   0  0
    6.4434   25.8007   52.5767 H   0  0
  1  3  2  0
  1  5  1  0
  1  7  1  0
  2  4  2  0
  2  6  1  0
  2  8  1  0
  3  4  1  0
  3  9  1  0
  4 10  1  0
  5  6  2  0
  5 13  1  0
  6 14  1  0
  9 11  1  0
  9 16  1  0
  9 19  1  0
 10 12  1  0
 10 15  1  0
 10 20  1  0
 11 12  1  0
 11 21  1  0
 11 22  1  0
 12 23  1  0
 12 24  1  0
 13 17  1  0
 13 25  1  0
 13 26  1  0
 14 18  1  0
 14 27  1  0
 14 28  1  0
M  CHG  4   1   1   2   1   7  -1   8  -1
M  END
> <activity>
0

$$$$
ligand_565
  SciTegic10272118463D

 14 13  0  0  1  0            999 V2000
    6.3084   26.2011   54.7970 C   0  0
    5.2509   26.4802   53.6818 C   0  0
    7.7812   26.6263   54.5293 C   0  0
    5.9206   25.6008   55.9608 C   0  0
    8.3034   26.1581   53.4891 O   0  0
    4.2310   25.7502   53.7028 O   0  0
    6.7681   25.2426   57.0910 C   0  0
    6.2911   24.6333   58.1881 C   0  0
    8.3062   27.3276   55.4243 O   0  5
    5.5050   27.4380   52.9156 O   0  5
    7.4685   24.1613   59.7019 Br  0  0
    4.8715   25.3565   56.0686 H   0  0
    7.8254   25.4672   57.0662 H   0  0
    5.2565   24.3577   58.3353 H   0  0
  1  2  1  0
  1  3  1  0
  1  4  2  0
  2  6  2  0
  2 10  1  0
  3  5  2  0
  3  9  1  0
  4  7  1  0
  4 12  1  0
  7  8  2  0
  7 13  1  0
  8 11  1  0
  8 14  1  0
M  CHG  2   9  -1  10  -1
M  END
> <activity>
0

$$$$
ligand_566
  SciTegic10272118463D

 14 14  0  0  1  0            999 V2000
    2.4941   28.9533   50.7786 C   0  0
    2.2970   30.2070   50.1822 C   0  0
    3.6923   28.6922   51.4630 C   0  0
    3.2818   31.1909   50.2844 C   0  0
    4.6719   29.6841   51.5544 C   0  0
    4.4677   30.9318   50.9667 C   0  0
    1.5069   27.9690   50.6871 N   0  0
    4.0256   27.0004   52.2846 Br  0  0
    0.7069   30.6156   49.2107 Br  0  0
    5.8060   32.2813   51.0866 Br  0  0
    3.1276   32.1563   49.8252 H   0  0
    5.5921   29.4850   52.0843 H   0  0
    0.6201   28.2694   50.3074 H   0  0
    1.8496   27.0653   50.3737 H   0  0
  1  2  2  0
  1  3  1  0
  1  7  1  0
  2  4  1  0
  2  9  1  0
  3  5  2  0
  3  8  1  0
  4  6  2  0
  4 11  1  0
  5  6  1  0
  5 12  1  0
  6 10  1  0
  7 13  1  0
  7 14  1  0
M  END
> <activity>
0

$$$$
ligand_567
  SciTegic10272118463D

 33 35  0  0  1  0            999 V2000
    6.2801   27.2476   52.4686 C   0  0
    5.3922   28.3388   51.7080 C   0  0
    7.1542   26.4086   51.5501 N   0  3
    5.5640   26.2420   53.3571 N   0  3
    4.2145   27.7231   50.8630 C   0  0
    4.7424   29.3620   52.7054 C   0  0
    6.2848   29.1722   50.7202 C   0  0
    4.3616   26.3597   53.5678 O   0  5
    8.3056   26.1581   51.8954 O   0  5
    5.4689   30.2641   49.9817 C   0  0  1  0  0  0
    3.9297   30.4575   51.9665 C   0  0  2  0  0  0
    3.3948   28.8151   50.1289 C   0  0  1  0  0  0
    6.6883   26.0068   50.4897 O   0  0
    6.2361   25.3567   53.8867 O   0  0
    7.5148   28.1815   53.7603 Br  0  0
    2.7852   29.7875   51.1654 C   0  0
    4.3183   29.6080   49.1773 C   0  0
    4.8655   31.2396   51.0145 C   0  0
    4.5702   27.0156   50.1176 H   0  0
    3.5222   27.1498   51.4766 H   0  0
    5.4923   29.8678   53.3114 H   0  0
    4.1043   28.8353   53.4128 H   0  0
    6.7468   28.5270   49.9750 H   0  0
    7.1111   29.6442   51.2562 H   0  0
    6.1285   30.8132   49.3074 H   0  0
    3.5102   31.1562   52.6871 H   0  0
    2.5966   28.3439   49.5518 H   0  0
    2.1780   30.5444   50.6675 H   0  0
    2.1114   29.2539   51.8379 H   0  0
    3.7266   30.3724   48.6792 H   0  0
    4.7059   28.9584   48.3948 H   0  0
    4.3136   32.0371   50.5104 H   0  0
    5.6575   31.7320   51.5817 H   0  0
  1  2  1  0
  1  3  1  0
  1  4  1  0
  1 15  1  0
  2  5  1  0
  2  6  1  0
  2  7  1  0
  3  9  1  0
  3 13  2  0
  4  8  1  0
  4 14  2  0
  5 12  1  0
  5 19  1  0
  5 20  1  0
  6 11  1  0
  6 21  1  0
  6 22  1  0
  7 10  1  0
  7 23  1  0
  7 24  1  0
 10 17  1  0
 10 18  1  0
 10 25  1  0
 11 16  1  0
 11 18  1  0
 11 26  1  0
 12 16  1  0
 12 17  1  0
 12 27  1  0
 16 28  1  0
 16 29  1  0
 17 30  1  0
 17 31  1  0
 18 32  1  0
 18 33  1  0
M  CHG  4   3   1   4   1   8  -1   9  -1
M  END
> <activity>
0

$$$$
ligand_568
  SciTegic10272118463D

 23 25  0  0  1  0            999 V2000
    6.0441   29.3270   51.7443 C   0  0  2  0  0  0
    5.2644   28.7664   50.5669 C   0  0  2  0  0  0
    5.9372   28.1802   52.7901 C   0  0  1  0  0  0
    5.3551   30.6681   51.9988 C   0  0
    4.1582   29.7901   50.3483 C   0  0
    4.8374   27.3703   51.0648 C   0  0  2  0  0  0
    4.6523   27.6697   52.4449 O   0  0
    4.3068   30.8222   51.1838 O   0  0
    6.8011   26.9576   52.3769 C   0  0  2  0  0  0
    5.9916   26.3648   51.2217 C   0  0  2  0  0  0
    5.6777   31.5342   52.8080 O   0  0
    3.2346   29.7354   49.5401 O   0  0
    6.9461   25.5706   53.8100 Br  0  0
    7.1078   26.2384   49.5705 Br  0  0
    5.9763   28.5934   54.2748 C   0  0
    7.0882   29.5231   51.4977 H   0  0
    5.8599   28.7022   49.6575 H   0  0
    3.9542   26.9609   50.5676 H   0  0
    7.8233   27.2299   52.1152 H   0  0
    5.6187   25.3591   51.4262 H   0  0
    6.9656   28.9444   54.5630 H   0  0
    5.7039   27.7669   54.9292 H   0  0
    5.2628   29.3878   54.4886 H   0  0
  1  2  1  0
  1  3  1  0
  1  4  1  0
  1 16  1  0
  2  5  1  0
  2  6  1  0
  2 17  1  0
  3  7  1  0
  3  9  1  0
  3 15  1  0
  4  8  1  0
  4 11  2  0
  5  8  1  0
  5 12  2  0
  6  7  1  0
  6 10  1  0
  6 18  1  0
  9 10  1  0
  9 13  1  0
  9 19  1  0
 10 14  1  0
 10 20  1  0
 15 21  1  0
 15 22  1  0
 15 23  1  0
M  END
> <activity>
0

$$$$
ligand_569
  SciTegic10272118463D

 18 19  0  0  1  0            999 V2000
    5.5211   28.0831   53.9314 C   0  0
    5.3932   27.5868   52.5022 C   0  0  2  0  0  0
    6.7295   27.5605   53.2208 C   0  0  2  0  0  0
    5.5059   30.0416   54.2879 Br  0  0
    4.7060   26.9584   55.3620 Br  0  0
    6.7062   27.5999   50.4051 O   0  0
    7.8843   26.0477   51.8098 O   0  0
    5.6627   28.2612   51.1497 C   0  0
    7.3000   26.1515   53.1130 C   0  0
    7.0732   26.2624   50.6746 C   0  0
    4.8157   26.6678   52.3890 H   0  0
    7.4905   28.3185   53.0215 H   0  0
    5.9488   29.3064   51.2806 H   0  0
    4.7525   28.2595   50.5489 H   0  0
    8.0731   26.0052   53.8660 H   0  0
    6.5568   25.3669   53.2652 H   0  0
    7.6812   25.9485   49.8240 H   0  0
    6.1941   25.6140   50.6973 H   0  0
  1  2  1  0
  1  3  1  0
  1  4  1  0
  1  5  1  0
  2  3  1  0
  2  8  1  0
  2 11  1  0
  3  9  1  0
  3 12  1  0
  6  8  1  0
  6 10  1  0
  7  9  1  0
  7 10  1  0
  8 13  1  0
  8 14  1  0
  9 15  1  0
  9 16  1  0
 10 17  1  0
 10 18  1  0
M  END
> <activity>
0

$$$$
ligand_570
  SciTegic10272118463D

 16 15  0  0  1  0            999 V2000
    6.2399   26.5059   54.3857 C   0  0
    5.9991   26.4394   52.9124 N   0  0
    7.0656   26.2073   52.0491 N   0  3
    6.7028   25.1858   54.9853 N   0  3
    7.2192   27.6283   54.6874 N   0  3
    6.8293   26.0939   50.8486 O   0  5
    8.2008   26.1581   52.5177 O   0  0
    6.9170   28.7512   54.2938 O   0  5
    6.9985   25.1546   56.1771 O   0  5
    6.7033   24.1797   54.2880 O   0  0
    8.2712   27.3922   55.2770 O   0  0
    4.6313   26.9582   55.4878 Br  0  0
    4.6456   26.1317   52.4271 C   0  0
    4.3796   25.1047   52.6823 H   0  0
    4.5339   26.2443   51.3473 H   0  0
    3.9060   26.7960   52.8737 H   0  0
  1  2  1  0
  1  4  1  0
  1  5  1  0
  1 12  1  0
  2  3  1  0
  2 13  1  0
  3  6  1  0
  3  7  2  0
  4  9  1  0
  4 10  2  0
  5  8  1  0
  5 11  2  0
 13 14  1  0
 13 15  1  0
 13 16  1  0
M  CHG  6   3   1   4   1   5   1   6  -1   8  -1   9  -1
M  END
> <activity>
0

$$$$
ligand_571
  SciTegic10272118463D

 45 47  0  0  1  0            999 V2000
   -2.5232   34.4672   48.6951 C   0  0
   -2.6051   32.9577   46.9791 C   0  0
   -1.4494   32.6749   47.7963 C   0  0
   -1.4112   33.4881   48.9095 C   0  0
   -3.2346   34.0285   47.4866 C   0  0
   -0.5238   31.7580   47.4880 N   0  0
    0.5992   32.2430   49.5596 C   0  0
   -0.4061   33.2098   49.8723 C   0  0
   -2.8557   35.5987   49.3591 C   0  0
    0.5003   31.5613   48.3348 C   0  0
   -2.1369   36.3407   50.3987 C   0  0
   -2.9433   32.2634   45.7782 C   0  0
    1.7598   31.9698   50.4206 C   0  0
   -1.8819   37.1644   52.6542 C   0  0
   -3.2425   31.6851   44.8212 N   0  0
   -2.5716   36.3582   51.7303 C   0  0
    2.6865   31.7577   51.0842 N   0  0
   -0.8045   37.9753   52.2559 C   0  0
   -0.4235   37.9747   50.9096 C   0  0
   -1.0749   37.1533   49.9955 C   0  0
    1.4271   30.6153   47.8908 N   0  0
    0.9730   39.1168   50.2881 Br  0  0
   -4.3897   34.7560   46.8119 C   0  0
   -0.4157   33.8942   51.2351 C   0  0
   -3.6522   35.5580   52.0583 O   0  0
   -0.0897   38.7921   53.1124 O   0  0
   -0.4288   38.8303   54.4931 C   0  0
   -4.1321   35.5369   53.3991 C   0  0
   -3.7599   36.1035   49.0515 H   0  0
   -2.1913   37.1697   53.6853 H   0  0
   -0.7675   37.1745   48.9588 H   0  0
    2.2160   30.3691   48.4715 H   0  0
    1.2619   30.1617   47.0051 H   0  0
   -4.1350   35.8078   46.6736 H   0  0
   -5.2936   34.7162   47.4104 H   0  0
   -4.6119   34.3431   45.8268 H   0  0
   -1.4347   33.9408   51.6123 H   0  0
   -0.0076   34.8995   51.1691 H   0  0
    0.1499   33.3580   51.9945 H   0  0
    0.2428   39.5203   55.0054 H   0  0
   -0.3165   37.8506   54.9598 H   0  0
   -1.4470   39.1900   54.6469 H   0  0
   -4.9774   34.8522   53.4645 H   0  0
   -4.4785   36.5220   53.7179 H   0  0
   -3.3687   35.1810   54.0934 H   0  0
  1  4  1  0
  1  5  1  0
  1  9  2  0
  2  3  1  0
  2  5  2  0
  2 12  1  0
  3  4  2  0
  3  6  1  0
  4  8  1  0
  5 23  1  0
  6 10  2  0
  7  8  2  0
  7 10  1  0
  7 13  1  0
  8 24  1  0
  9 11  1  0
  9 29  1  0
 10 21  1  0
 11 16  1  0
 11 20  2  0
 12 15  3  0
 13 17  3  0
 14 16  2  0
 14 18  1  0
 14 30  1  0
 16 25  1  0
 18 19  2  0
 18 26  1  0
 19 20  1  0
 19 22  1  0
 20 31  1  0
 21 32  1  0
 21 33  1  0
 23 34  1  0
 23 35  1  0
 23 36  1  0
 24 37  1  0
 24 38  1  0
 24 39  1  0
 25 28  1  0
 26 27  1  0
 27 40  1  0
 27 41  1  0
 27 42  1  0
 28 43  1  0
 28 44  1  0
 28 45  1  0
M  END
> <activity>
0

$$$$
