5HT2c_ligand1
  DSViewer          3D                             0

 76 80  0  0  0  0  0  0  0  0999 V2000
   -5.4755    0.6046    0.8038 C   0  0
   -4.4408   -0.2118    0.4419 C   0  0
   -4.6219   -1.5980    0.3770 C   0  0
   -5.8431   -2.1382    0.6720 C   0  0
   -6.9246   -1.3218    1.0460 C   0  0
   -6.7295    0.0748    1.1038 C   0  0
   -3.3906   -2.3081   -0.0188 C   0  0
   -2.3439   -1.1742   -0.2115 C   0  0
   -3.0541    0.0794    0.0774 N   0  0
   -2.4743    1.3120   -0.0106 C   0  0
   -3.1212    2.3451    0.1470 O   0  0
   -1.1474    1.3134   -0.2846 N   0  0
   -0.3669    2.4222   -0.4543 C   0  0
   -0.5201    3.5787    0.3098 C   0  0
    0.2896    4.6860    0.0887 C   0  0
    1.2884    4.6595   -0.8797 C   0  0
    1.4456    3.4882   -1.6231 C   0  0
    0.6386    2.3766   -1.4128 C   0  0
    2.1607    5.8715   -1.0887 C   0  0
    2.6799    3.3762   -2.8466 Cl  0  0
   -8.1716   -1.8478    1.3955 O   0  0
   -8.3713   -3.2296    1.1594 C   0  0
   -7.6750    1.0364    1.4707 O   0  0
   -9.0447    0.7093    1.3415 C   0  0
   -9.8309    2.0227    1.3763 C   0  0
  -11.2985    1.9011    1.4339 N   0  0
  -11.8660    1.1890    0.2737 C   0  0
  -13.3972    1.0856    0.3275 C   0  0
  -14.0325    2.4711    0.4657 C   0  0
  -13.4411    3.1653    1.6991 C   0  0
  -11.9152    3.2331    1.5860 C   0  0
  -15.5096    2.4046    0.4264 N   0  0
  -16.1320    3.5943   -0.1821 C   0  0
  -17.6438    3.4225   -0.3735 C   0  0
  -18.3253    3.0821    0.9544 C   0  0
  -17.6643    1.8494    1.5755 C   0  0
  -16.1512    2.0606    1.7096 C   0  0
   -5.3328    1.6727    0.8605 H   0  0
   -5.9352   -3.2112    0.6115 H   0  0
   -3.5549   -2.8676   -0.9400 H   0  0
   -3.0900   -3.0043    0.7646 H   0  0
   -1.5019   -1.3008    0.4700 H   0  0
   -1.9637   -1.1633   -1.2347 H   0  0
   -0.7264    0.4130   -0.4156 H   0  0
   -1.2776    3.6355    1.0795 H   0  0
    0.1394    5.5761    0.6828 H   0  0
    0.7772    1.4794   -2.0009 H   0  0
    2.0642    6.2356   -2.1115 H   0  0
    3.2056    5.6225   -0.9015 H   0  0
    1.8818    6.6794   -0.4119 H   0  0
   -9.3966   -3.4961    1.4147 H   0  0
   -7.7113   -3.8354    1.7815 H   0  0
   -8.2192   -3.4737    0.1072 H   0  0
   -9.2275    0.1933    0.3977 H   0  0
   -9.3606    0.0705    2.1663 H   0  0
   -9.5120    2.5864    2.2543 H   0  0
   -9.5684    2.6241    0.5046 H   0  0
  -11.4457    0.1832    0.2412 H   0  0
  -11.5494    1.7051   -0.6349 H   0  0
  -13.6929    0.4538    1.1645 H   0  0
  -13.7624    0.5958   -0.5750 H   0  0
  -13.7127    3.0439   -0.4063 H   0  0
  -13.8492    4.1714    1.7980 H   0  0
  -13.7034    2.6252    2.6086 H   0  0
  -11.6299    3.8472    0.7294 H   0  0
  -11.5022    3.7083    2.4767 H   0  0
  -15.6626    3.7778   -1.1498 H   0  0
  -15.9202    4.4567    0.4526 H   0  0
  -18.0735    4.3316   -0.7950 H   0  0
  -17.8308    2.6265   -1.0946 H   0  0
  -18.2368    3.9262    1.6386 H   0  0
  -19.3908    2.9086    0.8025 H   0  0
  -18.0973    1.6414    2.5549 H   0  0
  -17.8676    0.9754    0.9569 H   0  0
  -15.9614    2.8682    2.4178 H   0  0
  -15.6807    1.1596    2.1045 H   0  0
  1  2  2  0  0  0
  1 38  1  0  0  0
  2  3  1  0  0  0
  2  9  1  0  0  0
  3  4  2  0  0  0
  3  7  1  0  0  0
  4  5  1  0  0  0
  4 39  1  0  0  0
  5  6  2  0  0  0
  5 21  1  0  0  0
  6  1  1  0  0  0
  6 23  1  0  0  0
  7  8  1  0  0  0
  7 40  1  0  0  0
  7 41  1  0  0  0
  8  9  1  0  0  0
  8 42  1  0  0  0
  8 43  1  0  0  0
  9 10  1  0  0  0
 10 11  2  0  0  0
 10 12  1  0  0  0
 12 13  1  0  0  0
 12 44  1  0  0  0
 13 14  1  0  0  0
 13 18  2  0  0  0
 14 15  2  0  0  0
 14 45  1  0  0  0
 15 16  1  0  0  0
 15 46  1  0  0  0
 16 17  2  0  0  0
 16 19  1  0  0  0
 17 18  1  0  0  0
 17 20  1  0  0  0
 18 47  1  0  0  0
 19 48  1  0  0  0
 19 49  1  0  0  0
 19 50  1  0  0  0
 21 22  1  0  0  0
 22 51  1  0  0  0
 22 52  1  0  0  0
 22 53  1  0  0  0
 23 24  1  0  0  0
 24 25  1  0  0  0
 24 54  1  0  0  0
 24 55  1  0  0  0
 25 26  1  0  0  0
 25 56  1  0  0  0
 25 57  1  0  0  0
 26 27  1  0  0  0
 26 31  1  0  0  0
 27 28  1  0  0  0
 27 58  1  0  0  0
 27 59  1  0  0  0
 28 29  1  0  0  0
 28 60  1  0  0  0
 28 61  1  0  0  0
 29 30  1  0  0  0
 29 32  1  0  0  0
 29 62  1  0  0  0
 30 31  1  0  0  0
 30 63  1  0  0  0
 30 64  1  0  0  0
 31 65  1  0  0  0
 31 66  1  0  0  0
 32 33  1  0  0  0
 32 37  1  0  0  0
 33 34  1  0  0  0
 33 67  1  0  0  0
 33 68  1  0  0  0
 34 35  1  0  0  0
 34 69  1  0  0  0
 34 70  1  0  0  0
 35 36  1  0  0  0
 35 71  1  0  0  0
 35 72  1  0  0  0
 36 37  1  0  0  0
 36 73  1  0  0  0
 36 74  1  0  0  0
 37 75  1  0  0  0
 37 76  1  0  0  0
M  END
> <Principal>
2

> <MaxOmitFeat>
0

$$$$
5HT2c_ligand2
  SciTegic12232008573D

 62 65  0  0  0  0            999 V2000
   -3.2510    2.8398    3.1576 C   0  0  0  0  0  0  0  0  0  1  0  0
   -2.2995    1.8613    3.2558 C   0  0  0  0  0  0  0  0  0  2  0  0
   -2.6564    0.5478    3.5876 C   0  0  0  0  0  0  0  0  0  3  0  0
   -3.9687    0.2374    3.8132 C   0  0  0  0  0  0  0  0  0  4  0  0
   -4.9606    1.2261    3.7287 C   0  0  0  0  0  0  0  0  0  5  0  0
   -4.5990    2.5376    3.3988 C   0  0  0  0  0  0  0  0  0  6  0  0
   -1.4915   -0.3562    3.6486 C   0  0  0  0  0  0  0  0  0  7  0  0
   -0.2803    0.5704    3.3453 C   0  0  0  0  0  0  0  0  0  8  0  0
   -0.8487    1.8977    3.0727 N   0  0  0  0  0  0  0  0  0  9  0  0
   -0.1020    2.9742    2.6854 C   0  0  0  0  0  0  0  0  0 10  0  0
   -0.5874    4.0642    2.3846 O   0  0  0  0  0  0  0  0  0 11  0  0
   -6.3197    0.9946    3.9620 O   0  0  0  0  0  0  0  0  0 12  0  0
   -6.6626   -0.3118    4.3880 C   0  0  0  0  0  0  0  0  0 13  0  0
   -5.6378    3.4703    3.3330 O   0  0  0  0  0  0  0  0  0 14  0  0
   -5.2513    4.8220    3.1579 C   0  0  0  0  0  0  0  0  0 15  0  0
   -6.4929    5.7237    3.1696 C   0  0  0  0  0  0  0  0  0 16  0  0
   -7.5684    5.3312    2.2386 N   0  0  0  0  0  0  0  0  0 17  0  0
   -7.1486    5.3456    0.8251 C   0  0  0  0  0  0  0  0  0 18  0  0
   -8.2646    4.8868   -0.1253 C   0  0  0  0  0  0  0  0  0 19  0  0
   -9.5383    5.7154    0.0657 C   0  0  2  0  0  0  0  0  0 20  0  0
   -9.9356    5.7134    1.5432 C   0  0  0  0  0  0  0  0  0 21  0  0
   -8.7630    6.1779    2.4147 C   0  0  0  0  0  0  0  0  0 22  0  0
  -10.6351    5.2591   -0.7904 N   0  0  0  0  0  0  0  0  0 23  0  0
    1.3785    2.8676    2.6011 C   0  0  0  0  0  0  0  0  0 24  0  0
    2.1136    3.8527    2.0438 C   0  0  0  0  0  0  0  0  0 25  0  0
    3.5811    3.7722    1.9299 C   0  0  0  0  0  0  0  0  0 26  0  0
    4.3837    4.9187    1.9665 C   0  0  0  0  0  0  0  0  0 27  0  0
    5.7666    4.8363    1.8492 C   0  0  0  0  0  0  0  0  0 28  0  0
    6.3673    3.5948    1.6930 C   0  0  0  0  0  0  0  0  0 29  0  0
    5.5859    2.4482    1.6442 C   0  0  0  0  0  0  0  0  0 30  0  0
    4.2033    2.5358    1.7561 C   0  0  0  0  0  0  0  0  0 31  0  0
    3.6946    6.5027    2.1982 Cl  0  0  0  0  0  0  0  0  0 32  0  0
   -2.9373    3.8372    2.8967 H   0  0  0  0  0  0  0  0  0 33  0  0
   -4.2082   -0.7857    4.0558 H   0  0  0  0  0  0  0  0  0 34  0  0
   -1.4142   -0.8135    4.6358 H   0  0  0  0  0  0  0  0  0 35  0  0
   -1.5895   -1.1481    2.9046 H   0  0  0  0  0  0  0  0  0 36  0  0
    0.2827    0.2107    2.4828 H   0  0  0  0  0  0  0  0  0 37  0  0
    0.3928    0.6200    4.2023 H   0  0  0  0  0  0  0  0  0 38  0  0
   -7.7351   -0.3643    4.5751 H   0  0  0  0  0  0  0  0  0 39  0  0
   -6.1532   -0.5712    5.3177 H   0  0  0  0  0  0  0  0  0 40  0  0
   -6.4285   -1.0484    3.6184 H   0  0  0  0  0  0  0  0  0 41  0  0
   -4.7179    4.9473    2.2155 H   0  0  0  0  0  0  0  0  0 42  0  0
   -4.5809    5.1290    3.9631 H   0  0  0  0  0  0  0  0  0 43  0  0
   -6.9098    5.7184    4.1778 H   0  0  0  0  0  0  0  0  0 44  0  0
   -6.2055    6.7541    2.9519 H   0  0  0  0  0  0  0  0  0 45  0  0
   -6.2925    4.6817    0.7081 H   0  0  0  0  0  0  0  0  0 46  0  0
   -6.8163    6.3543    0.5731 H   0  0  0  0  0  0  0  0  0 47  0  0
   -7.9198    4.9569   -1.1576 H   0  0  0  0  0  0  0  0  0 48  0  0
   -8.4762    3.8357    0.0618 H   0  0  0  0  0  0  0  0  0 49  0  0
   -9.3220    6.7444   -0.2265 H   0  0  0  0  0  0  0  0  0 50  0  0
  -10.7929    6.3679    1.7026 H   0  0  0  0  0  0  0  0  0 51  0  0
  -10.2438    4.7138    1.8501 H   0  0  0  0  0  0  0  0  0 52  0  0
   -8.4957    7.2085    2.1733 H   0  0  0  0  0  0  0  0  0 53  0  0
   -9.0569    6.1598    3.4637 H   0  0  0  0  0  0  0  0  0 54  0  0
  -10.6571    4.2353   -0.8229 H   0  0  0  0  0  0  0  0  0 55  0  0
  -10.4496    5.5286   -1.7588 H   0  0  0  0  0  0  0  0  0 56  0  0
    1.8492    1.9889    2.9966 H   0  0  0  0  0  0  0  0  0 57  0  0
    1.6293    4.7349    1.6651 H   0  0  0  0  0  0  0  0  0 58  0  0
    6.3834    5.7237    1.8822 H   0  0  0  0  0  0  0  0  0 59  0  0
    7.4427    3.5226    1.6075 H   0  0  0  0  0  0  0  0  0 60  0  0
    6.0544    1.4804    1.5214 H   0  0  0  0  0  0  0  0  0 61  0  0
    3.6252    1.6245    1.6968 H   0  0  0  0  0  0  0  0  0 62  0  0
  1  2  2  0
  1 33  1  0
  2  3  1  0
  2  9  1  0
  3  4  2  0
  3  7  1  0
  4  5  1  0
  4 34  1  0
  5  6  2  0
  5 12  1  0
  6  1  1  0
  6 14  1  0
  7  8  1  0
  7 35  1  0
  7 36  1  0
  8  9  1  0
  8 37  1  0
  8 38  1  0
  9 10  1  0
 10 11  2  0
 10 24  1  0
 12 13  1  0
 13 39  1  0
 13 40  1  0
 13 41  1  0
 14 15  1  0
 15 16  1  0
 15 42  1  0
 15 43  1  0
 16 17  1  0
 16 44  1  0
 16 45  1  0
 17 18  1  0
 17 22  1  0
 18 19  1  0
 18 46  1  0
 18 47  1  0
 19 20  1  0
 19 48  1  0
 19 49  1  0
 20 21  1  0
 20 23  1  0
 20 50  1  0
 21 22  1  0
 21 51  1  0
 21 52  1  0
 22 53  1  0
 22 54  1  0
 23 55  1  0
 23 56  1  0
 24 25  2  0
 24 57  1  0
 25 26  1  0
 25 58  1  0
 26 27  1  0
 26 31  2  0
 27 28  2  0
 27 32  1  0
 28 29  1  0
 28 59  1  0
 29 30  2  0
 29 60  1  0
 30 31  1  0
 30 61  1  0
 31 62  1  0
M  END
> <Name>
5HT2c_ligand2

> <Principal>
2

> <MaxOmitFeat>
0

$$$$
5HT2c_ligand3
  SciTegic12232008573D

 58 61  0  0  0  0            999 V2000
   -5.9722    2.5642   -1.8978 C   0  0  0  0  0  0  0  0  0  1  0  0
   -4.7901    2.4126   -2.6074 C   0  0  0  0  0  0  0  0  0  2  0  0
   -4.5882    1.2568   -3.3770 C   0  0  0  0  0  0  0  0  0  3  0  0
   -5.6180    0.3121   -3.4544 C   0  0  0  0  0  0  0  0  0  4  0  0
   -6.8096    0.4766   -2.7526 C   0  0  0  0  0  0  0  0  0  5  0  0
   -6.9717    1.6073   -1.9605 C   0  0  0  0  0  0  0  0  0  6  0  0
   -3.8746    3.4535   -2.4376 O   0  0  0  0  0  0  0  0  0  7  0  0
   -3.0511    3.7533   -3.5500 C   0  0  0  0  0  0  0  0  0  8  0  0
   -3.3501    1.0800   -4.0045 O   0  0  0  0  0  0  0  0  0  9  0  0
   -3.1307   -0.1521   -4.6666 C   0  0  0  0  0  0  0  0  0 10  0  0
   -1.6938   -0.2011   -5.2016 C   0  0  0  0  0  0  0  0  0 11  0  0
   -0.6254   -0.0395   -4.1942 N   0  0  0  0  0  0  0  0  0 12  0  0
    0.6890    0.0770   -4.8552 C   0  0  0  0  0  0  0  0  0 13  0  0
    1.8251    0.3139   -3.8543 C   0  0  0  0  0  0  0  0  0 14  0  0
    1.8692   -0.8111   -2.8182 C   0  0  0  0  0  0  0  0  0 15  0  0
    0.4980   -0.9598   -2.1560 C   0  0  0  0  0  0  0  0  0 16  0  0
   -0.6015   -1.1392   -3.2102 C   0  0  0  0  0  0  0  0  0 17  0  0
   -7.7769   -0.4921   -2.8040 N   0  0  0  0  0  0  0  0  0 18  0  0
   -7.4839   -1.9253   -2.7842 C   0  0  0  0  0  0  0  0  0 19  0  0
   -8.8600   -2.5823   -2.7065 C   0  0  0  0  0  0  0  0  0 20  0  0
   -9.7889   -1.4598   -2.8169 N   0  0  0  0  0  0  0  0  0 21  0  0
   -9.1187   -0.2791   -2.8614 C   0  0  0  0  0  0  0  0  0 22  0  0
   -9.6541    0.8252   -2.9368 O   0  0  0  0  0  0  0  0  0 23  0  0
  -11.1482   -1.6035   -2.8446 C   0  0  0  0  0  0  0  0  0 24  0  0
  -11.7703   -2.4551   -1.9322 C   0  0  0  0  0  0  0  0  0 25  0  0
  -13.1504   -2.6157   -1.9382 C   0  0  0  0  0  0  0  0  0 26  0  0
  -13.9208   -1.9188   -2.8602 C   0  0  0  0  0  0  0  0  0 27  0  0
  -13.3060   -1.0691   -3.7851 C   0  0  0  0  0  0  0  0  0 28  0  0
  -11.9232   -0.9213   -3.7832 C   0  0  0  0  0  0  0  0  0 29  0  0
  -15.6494   -2.1577   -2.7982 Cl  0  0  0  0  0  0  0  0  0 30  0  0
  -14.2109   -0.1481   -4.9641 Cl  0  0  0  0  0  0  0  0  0 31  0  0
   -6.1122    3.4451   -1.2893 H   0  0  0  0  0  0  0  0  0 32  0  0
   -5.5039   -0.5751   -4.0549 H   0  0  0  0  0  0  0  0  0 33  0  0
   -7.8767    1.7543   -1.3882 H   0  0  0  0  0  0  0  0  0 34  0  0
   -2.6589    4.7637   -3.4469 H   0  0  0  0  0  0  0  0  0 35  0  0
   -3.6093    3.7080   -4.4867 H   0  0  0  0  0  0  0  0  0 36  0  0
   -2.1926    3.0838   -3.5964 H   0  0  0  0  0  0  0  0  0 37  0  0
   -3.8234   -0.2540   -5.5029 H   0  0  0  0  0  0  0  0  0 38  0  0
   -3.3027   -0.9893   -3.9899 H   0  0  0  0  0  0  0  0  0 39  0  0
   -1.5818    0.5974   -5.9358 H   0  0  0  0  0  0  0  0  0 40  0  0
   -1.5275   -1.1402   -5.7327 H   0  0  0  0  0  0  0  0  0 41  0  0
    0.6515    0.9012   -5.5693 H   0  0  0  0  0  0  0  0  0 42  0  0
    0.8739   -0.8343   -5.4279 H   0  0  0  0  0  0  0  0  0 43  0  0
    2.7786    0.3747   -4.3785 H   0  0  0  0  0  0  0  0  0 44  0  0
    1.6781    1.2718   -3.3550 H   0  0  0  0  0  0  0  0  0 45  0  0
    2.1423   -1.7475   -3.3057 H   0  0  0  0  0  0  0  0  0 46  0  0
    2.6349   -0.6098   -2.0687 H   0  0  0  0  0  0  0  0  0 47  0  0
    0.5020   -1.8082   -1.4711 H   0  0  0  0  0  0  0  0  0 48  0  0
    0.2864   -0.0781   -1.5517 H   0  0  0  0  0  0  0  0  0 49  0  0
   -0.4621   -2.0815   -3.7439 H   0  0  0  0  0  0  0  0  0 50  0  0
   -1.5684   -1.1871   -2.7095 H   0  0  0  0  0  0  0  0  0 51  0  0
   -6.8604   -2.1784   -1.9260 H   0  0  0  0  0  0  0  0  0 52  0  0
   -6.9667   -2.2238   -3.6964 H   0  0  0  0  0  0  0  0  0 53  0  0
   -9.0206   -3.2942   -3.5168 H   0  0  0  0  0  0  0  0  0 54  0  0
   -8.9917   -3.0979   -1.7552 H   0  0  0  0  0  0  0  0  0 55  0  0
  -11.1903   -3.0001   -1.2001 H   0  0  0  0  0  0  0  0  0 56  0  0
  -13.6079   -3.2832   -1.2203 H   0  0  0  0  0  0  0  0  0 57  0  0
  -11.4425   -0.2688   -4.4984 H   0  0  0  0  0  0  0  0  0 58  0  0
  1  2  2  0
  1 32  1  0
  2  3  1  0
  2  7  1  0
  3  4  2  0
  3  9  1  0
  4  5  1  0
  4 33  1  0
  5  6  2  0
  5 18  1  0
  6  1  1  0
  6 34  1  0
  7  8  1  0
  8 35  1  0
  8 36  1  0
  8 37  1  0
  9 10  1  0
 10 11  1  0
 10 38  1  0
 10 39  1  0
 11 12  1  0
 11 40  1  0
 11 41  1  0
 12 13  1  0
 12 17  1  0
 13 14  1  0
 13 42  1  0
 13 43  1  0
 14 15  1  0
 14 44  1  0
 14 45  1  0
 15 16  1  0
 15 46  1  0
 15 47  1  0
 16 17  1  0
 16 48  1  0
 16 49  1  0
 17 50  1  0
 17 51  1  0
 18 19  1  0
 18 22  1  0
 19 20  1  0
 19 52  1  0
 19 53  1  0
 20 21  1  0
 20 54  1  0
 20 55  1  0
 21 22  1  0
 21 24  1  0
 22 23  2  0
 24 25  1  0
 24 29  2  0
 25 26  2  0
 25 56  1  0
 26 27  1  0
 26 57  1  0
 27 28  2  0
 27 30  1  0
 28 29  1  0
 28 31  1  0
 29 58  1  0
M  END
> <Name>
5HT2c_ligand3

> <Principal>
2

> <MaxOmitFeat>
0

$$$$
5HT2c_ligand4
  SciTegic12232008573D

 59 62  0  0  0  0            999 V2000
   -6.1987    1.3684   -0.4892 C   0  0  0  0  0  0  0  0  0  1  0  0
   -5.0191    0.6254   -0.5378 C   0  0  0  0  0  0  0  0  0  2  0  0
   -5.0903   -0.7864   -0.5094 C   0  0  0  0  0  0  0  0  0  3  0  0
   -6.3544   -1.3954   -0.4190 C   0  0  0  0  0  0  0  0  0  4  0  0
   -7.4967   -0.6465   -0.3672 C   0  0  0  0  0  0  0  0  0  5  0  0
   -7.4136    0.7493   -0.4015 C   0  0  0  0  0  0  0  0  0  6  0  0
   -8.7728    1.2842   -0.3295 N   0  0  0  0  0  0  0  0  0  7  0  0
   -9.7381    0.1770   -0.2538 C   0  0  0  0  0  0  0  0  0  8  0  0
   -8.8892   -1.1259   -0.2764 C   0  0  0  0  0  0  0  0  0  9  0  0
   -3.8659    1.4150   -0.6278 O   0  0  0  0  0  0  0  0  0 10  0  0
   -2.6195    0.8091   -0.3492 C   0  0  0  0  0  0  0  0  0 11  0  0
   -1.5732    1.9133   -0.1750 C   0  0  0  0  0  0  0  0  0 12  0  0
   -0.2132    1.4123    0.0633 N   0  0  0  0  0  0  0  0  0 13  0  0
    0.8296    2.4442    0.1056 C   0  0  0  0  0  0  0  0  0 14  0  0
    2.0330    1.7349    0.7098 C   0  0  0  0  0  0  0  0  0 15  0  0
    1.4183    0.7880    1.7322 C   0  0  0  0  0  0  0  0  0 16  0  0
   -0.0280    0.5875    1.2691 C   0  0  0  0  0  0  0  0  0 17  0  0
   -3.9125   -1.5362   -0.5962 O   0  0  0  0  0  0  0  0  0 18  0  0
   -4.0297   -2.9416   -0.4680 C   0  0  0  0  0  0  0  0  0 19  0  0
   -9.1231    2.6052   -0.3246 C   0  0  0  0  0  0  0  0  0 20  0  0
   -8.3161    3.5315   -0.3706 O   0  0  0  0  0  0  0  0  0 21  0  0
  -10.6367    2.8850   -0.2532 C   0  0  0  0  0  0  0  0  0 22  0  0
  -10.9142    4.3998   -0.2733 C   0  0  0  0  0  0  0  0  0 23  0  0
  -12.3465    4.9468   -0.2558 C   0  0  0  0  0  0  0  0  0 24  0  0
  -13.5453    4.2006   -0.1733 C   0  0  0  0  0  0  0  0  0 25  0  0
  -14.7965    4.8151   -0.1724 C   0  0  0  0  0  0  0  0  0 26  0  0
  -14.9031    6.1928   -0.2496 C   0  0  0  0  0  0  0  0  0 27  0  0
  -13.7560    6.9609   -0.3208 C   0  0  0  0  0  0  0  0  0 28  0  0
  -12.5106    6.3437   -0.3238 C   0  0  0  0  0  0  0  0  0 29  0  0
  -11.1360    7.4195   -0.4044 Cl  0  0  0  0  0  0  0  0  0 30  0  0
  -13.6219    2.4643   -0.0498 Cl  0  0  0  0  0  0  0  0  0 31  0  0
   -6.1402    2.4455   -0.5172 H   0  0  0  0  0  0  0  0  0 32  0  0
   -6.4691   -2.4675   -0.3952 H   0  0  0  0  0  0  0  0  0 33  0  0
  -10.3233    0.2435    0.6647 H   0  0  0  0  0  0  0  0  0 34  0  0
  -10.4241    0.2090   -1.1016 H   0  0  0  0  0  0  0  0  0 35  0  0
   -9.0271   -1.7139    0.6312 H   0  0  0  0  0  0  0  0  0 36  0  0
   -9.1309   -1.7520   -1.1361 H   0  0  0  0  0  0  0  0  0 37  0  0
   -2.6780    0.2218    0.5683 H   0  0  0  0  0  0  0  0  0 38  0  0
   -2.3272    0.1576   -1.1735 H   0  0  0  0  0  0  0  0  0 39  0  0
   -1.5479    2.5310   -1.0736 H   0  0  0  0  0  0  0  0  0 40  0  0
   -1.8508    2.5656    0.6538 H   0  0  0  0  0  0  0  0  0 41  0  0
    0.4930    3.2613    0.7460 H   0  0  0  0  0  0  0  0  0 42  0  0
    1.0162    2.8304   -0.8976 H   0  0  0  0  0  0  0  0  0 43  0  0
    2.5463    1.1628   -0.0642 H   0  0  0  0  0  0  0  0  0 44  0  0
    2.7514    2.4280    1.1488 H   0  0  0  0  0  0  0  0  0 45  0  0
    1.9659   -0.1527    1.7946 H   0  0  0  0  0  0  0  0  0 46  0  0
    1.4289    1.2432    2.7232 H   0  0  0  0  0  0  0  0  0 47  0  0
   -0.2417   -0.4517    1.0164 H   0  0  0  0  0  0  0  0  0 48  0  0
   -0.7315    0.9086    2.0397 H   0  0  0  0  0  0  0  0  0 49  0  0
   -4.6171   -3.3652   -1.2840 H   0  0  0  0  0  0  0  0  0 50  0  0
   -4.4725   -3.2143    0.4914 H   0  0  0  0  0  0  0  0  0 51  0  0
   -3.0396   -3.3951   -0.5107 H   0  0  0  0  0  0  0  0  0 52  0  0
  -11.0969    2.3982   -1.1112 H   0  0  0  0  0  0  0  0  0 53  0  0
  -11.0008    2.4385    0.6706 H   0  0  0  0  0  0  0  0  0 54  0  0
  -10.3896    4.8401    0.5757 H   0  0  0  0  0  0  0  0  0 55  0  0
  -10.4365    4.7989   -1.1692 H   0  0  0  0  0  0  0  0  0 56  0  0
  -15.7101    4.2361   -0.1142 H   0  0  0  0  0  0  0  0  0 57  0  0
  -15.8760    6.6655   -0.2495 H   0  0  0  0  0  0  0  0  0 58  0  0
  -13.8494    8.0378   -0.3739 H   0  0  0  0  0  0  0  0  0 59  0  0
  1  2  2  0
  1 32  1  0
  2  3  1  0
  2 10  1  0
  3  4  2  0
  3 18  1  0
  4  5  1  0
  4 33  1  0
  5  6  2  0
  5  9  1  0
  6  1  1  0
  6  7  1  0
  7  8  1  0
  7 20  1  0
  8  9  1  0
  8 34  1  0
  8 35  1  0
  9 36  1  0
  9 37  1  0
 10 11  1  0
 11 12  1  0
 11 38  1  0
 11 39  1  0
 12 13  1  0
 12 40  1  0
 12 41  1  0
 13 14  1  0
 13 17  1  0
 14 15  1  0
 14 42  1  0
 14 43  1  0
 15 16  1  0
 15 44  1  0
 15 45  1  0
 16 17  1  0
 16 46  1  0
 16 47  1  0
 17 48  1  0
 17 49  1  0
 18 19  1  0
 19 50  1  0
 19 51  1  0
 19 52  1  0
 20 21  2  0
 20 22  1  0
 22 23  1  0
 22 53  1  0
 22 54  1  0
 23 24  1  0
 23 55  1  0
 23 56  1  0
 24 25  1  0
 24 29  2  0
 25 26  2  0
 25 31  1  0
 26 27  1  0
 26 57  1  0
 27 28  2  0
 27 58  1  0
 28 29  1  0
 28 59  1  0
 29 30  1  0
M  END
> <Name>
5HT2c_ligand4

> <Principal>
2

> <MaxOmitFeat>
0

$$$$
5HT2c_ligand5
  SciTegic12232008573D

 57 60  0  0  0  0            999 V2000
   -7.2170    2.0751   -0.6007 C   0  0  0  0  0  0  0  0  0  1  0  0
   -6.0203    1.3738   -0.6765 C   0  0  0  0  0  0  0  0  0  2  0  0
   -6.0260   -0.0211   -0.5093 C   0  0  0  0  0  0  0  0  0  3  0  0
   -7.2393   -0.6604   -0.2467 C   0  0  0  0  0  0  0  0  0  4  0  0
   -8.4208    0.0591   -0.1527 C   0  0  0  0  0  0  0  0  0  5  0  0
   -8.4235    1.4363   -0.3365 C   0  0  0  0  0  0  0  0  0  6  0  0
   -4.8313   -0.7349   -0.6333 O   0  0  0  0  0  0  0  0  0  7  0  0
   -4.7961   -2.0119   -0.0209 C   0  0  0  0  0  0  0  0  0  8  0  0
   -4.8995    2.1750   -0.9314 O   0  0  0  0  0  0  0  0  0  9  0  0
   -3.6506    1.6858   -0.4796 C   0  0  0  0  0  0  0  0  0 10  0  0
   -2.6674    2.8534   -0.3327 C   0  0  0  0  0  0  0  0  0 11  0  0
   -1.2681    2.4577   -0.0853 N   0  0  0  0  0  0  0  0  0 12  0  0
   -0.3737    3.6294   -0.0488 C   0  0  0  0  0  0  0  0  0 13  0  0
    1.0991    3.2196    0.0594 C   0  0  0  0  0  0  0  0  0 14  0  0
    1.3261    2.3624    1.3069 C   0  0  0  0  0  0  0  0  0 15  0  0
    0.3628    1.1736    1.3045 C   0  0  0  0  0  0  0  0  0 16  0  0
   -1.0876    1.6411    1.1305 C   0  0  0  0  0  0  0  0  0 17  0  0
   -9.5776    2.1644   -0.2294 N   0  0  0  0  0  0  0  0  0 18  0  0
  -10.8084    1.8036   -0.6903 C   0  0  0  0  0  0  0  0  0 19  0  0
  -11.7594    2.8657   -0.3012 C   0  0  0  0  0  0  0  0  0 20  0  0
  -11.1032    3.8405    0.3429 C   0  0  0  0  0  0  0  0  0 21  0  0
   -9.6486    3.4792    0.4268 C   0  0  0  0  0  0  0  0  0 22  0  0
  -11.0908    0.7816   -1.3164 O   0  0  0  0  0  0  0  0  0 23  0  0
  -13.2078    2.8892   -0.5531 C   0  0  0  0  0  0  0  0  0 24  0  0
  -13.9536    1.7136   -0.4915 C   0  0  0  0  0  0  0  0  0 25  0  0
  -15.3270    1.7318   -0.7027 C   0  0  0  0  0  0  0  0  0 26  0  0
  -15.9657    2.9356   -0.9731 C   0  0  0  0  0  0  0  0  0 27  0  0
  -15.2245    4.1204   -1.0366 C   0  0  0  0  0  0  0  0  0 28  0  0
  -13.8501    4.0967   -0.8240 C   0  0  0  0  0  0  0  0  0 29  0  0
  -17.6952    2.8853   -1.2160 Cl  0  0  0  0  0  0  0  0  0 30  0  0
  -15.9563    5.6752   -1.3535 Cl  0  0  0  0  0  0  0  0  0 31  0  0
   -7.1854    3.1433   -0.7456 H   0  0  0  0  0  0  0  0  0 32  0  0
   -7.2961   -1.7294   -0.1167 H   0  0  0  0  0  0  0  0  0 33  0  0
   -9.3400   -0.4686    0.0582 H   0  0  0  0  0  0  0  0  0 34  0  0
   -5.4019   -2.7326   -0.5715 H   0  0  0  0  0  0  0  0  0 35  0  0
   -5.1283   -1.9631    1.0178 H   0  0  0  0  0  0  0  0  0 36  0  0
   -3.7719   -2.3831   -0.0204 H   0  0  0  0  0  0  0  0  0 37  0  0
   -3.7670    1.1974    0.4888 H   0  0  0  0  0  0  0  0  0 38  0  0
   -3.2544    0.9651   -1.1958 H   0  0  0  0  0  0  0  0  0 39  0  0
   -2.6868    3.4435   -1.2504 H   0  0  0  0  0  0  0  0  0 40  0  0
   -2.9905    3.5118    0.4755 H   0  0  0  0  0  0  0  0  0 41  0  0
   -0.6598    4.2612    0.7946 H   0  0  0  0  0  0  0  0  0 42  0  0
   -0.5252    4.2150   -0.9550 H   0  0  0  0  0  0  0  0  0 43  0  0
    1.3876    2.6600   -0.8305 H   0  0  0  0  0  0  0  0  0 44  0  0
    1.7336    4.1056    0.0903 H   0  0  0  0  0  0  0  0  0 45  0  0
    2.3588    2.0157    1.3503 H   0  0  0  0  0  0  0  0  0 46  0  0
    1.1589    2.9640    2.2003 H   0  0  0  0  0  0  0  0  0 47  0  0
    0.6246    0.4946    0.4923 H   0  0  0  0  0  0  0  0  0 48  0  0
    0.4635    0.6068    2.2310 H   0  0  0  0  0  0  0  0  0 49  0  0
   -1.7290    0.7631    1.0644 H   0  0  0  0  0  0  0  0  0 50  0  0
   -1.4144    2.2238    1.9941 H   0  0  0  0  0  0  0  0  0 51  0  0
  -11.5086    4.7442    0.7579 H   0  0  0  0  0  0  0  0  0 52  0  0
   -9.0457    4.2198   -0.0989 H   0  0  0  0  0  0  0  0  0 53  0  0
   -9.3203    3.4119    1.4643 H   0  0  0  0  0  0  0  0  0 54  0  0
  -13.4718    0.7734   -0.2639 H   0  0  0  0  0  0  0  0  0 55  0  0
  -15.8809    0.8044   -0.6496 H   0  0  0  0  0  0  0  0  0 56  0  0
  -13.2764    5.0122   -0.8740 H   0  0  0  0  0  0  0  0  0 57  0  0
  1  2  2  0
  1 32  1  0
  2  3  1  0
  2  9  1  0
  3  4  2  0
  3  7  1  0
  4  5  1  0
  4 33  1  0
  5  6  2  0
  5 34  1  0
  6  1  1  0
  6 18  1  0
  7  8  1  0
  8 35  1  0
  8 36  1  0
  8 37  1  0
  9 10  1  0
 10 11  1  0
 10 38  1  0
 10 39  1  0
 11 12  1  0
 11 40  1  0
 11 41  1  0
 12 13  1  0
 12 17  1  0
 13 14  1  0
 13 42  1  0
 13 43  1  0
 14 15  1  0
 14 44  1  0
 14 45  1  0
 15 16  1  0
 15 46  1  0
 15 47  1  0
 16 17  1  0
 16 48  1  0
 16 49  1  0
 17 50  1  0
 17 51  1  0
 18 19  1  0
 18 22  1  0
 19 20  1  0
 19 23  2  0
 20 21  2  0
 20 24  1  0
 21 22  1  0
 21 52  1  0
 22 53  1  0
 22 54  1  0
 24 25  1  0
 24 29  2  0
 25 26  2  0
 25 55  1  0
 26 27  1  0
 26 56  1  0
 27 28  2  0
 27 30  1  0
 28 29  1  0
 28 31  1  0
 29 57  1  0
M  END
> <Name>
5HT2c_ligand5

> <Principal>
2

> <MaxOmitFeat>
0

$$$$
5HT2c_ligand6
  SciTegic12232008573D

 51 54  0  0  0  0            999 V2000
   -7.8301    1.4834   -0.1069 C   0  0  0  0  0  0  0  0  0  1  0  0
   -6.6026    0.8125   -0.0097 C   0  0  0  0  0  0  0  0  0  2  0  0
   -6.5683   -0.5785   -0.1353 C   0  0  0  0  0  0  0  0  0  3  0  0
   -7.7575   -1.2774   -0.3790 C   0  0  0  0  0  0  0  0  0  4  0  0
   -8.9449   -0.6117   -0.4988 C   0  0  0  0  0  0  0  0  0  5  0  0
   -8.9925    0.7975   -0.3613 C   0  0  0  0  0  0  0  0  0  6  0  0
  -10.3445    1.1200   -0.5385 N   0  0  0  0  0  0  0  0  0  7  0  0
  -11.1250    0.0406   -0.7942 C   0  0  0  0  0  0  0  0  0  8  0  0
  -10.2883   -1.0773   -0.7596 C   0  0  0  0  0  0  0  0  0  9  0  0
   -5.3145   -1.1810    0.0048 O   0  0  0  0  0  0  0  0  0 10  0  0
   -5.2716   -2.5748   -0.2440 C   0  0  0  0  0  0  0  0  0 11  0  0
   -5.3708    1.4442    0.1978 O   0  0  0  0  0  0  0  0  0 12  0  0
   -5.3964    2.8606    0.1674 C   0  0  0  0  0  0  0  0  0 13  0  0
   -3.9651    3.4039    0.2119 C   0  0  0  0  0  0  0  0  0 14  0  0
   -3.8594    4.8660    0.3701 N   0  0  0  0  0  0  0  0  0 15  0  0
   -4.4786    5.6292   -0.7302 C   0  0  0  0  0  0  0  0  0 16  0  0
   -4.4212    7.1410   -0.4807 C   0  0  0  0  0  0  0  0  0 17  0  0
   -2.9783    7.6019   -0.2635 C   0  0  0  0  0  0  0  0  0 18  0  0
   -2.3335    6.7836    0.8573 C   0  0  0  0  0  0  0  0  0 19  0  0
   -2.4595    5.2830    0.5728 C   0  0  0  0  0  0  0  0  0 20  0  0
  -10.7598    2.4514   -0.4703 C   0  0  0  0  0  0  0  0  0 21  0  0
   -9.9364    3.3640   -0.4980 O   0  0  0  0  0  0  0  0  0 22  0  0
  -12.1008    2.8213   -0.3741 C   0  0  0  0  0  0  0  0  0 23  0  0
  -13.4390    1.7928   -0.1430 S   0  0  0  0  0  0  0  0  0 24  0  0
  -14.5711    3.0554   -0.1459 C   0  0  0  0  0  0  0  0  0 25  0  0
  -13.9380    4.2954   -0.3117 C   0  0  0  0  0  0  0  0  0 26  0  0
  -12.5389    4.1590   -0.4410 C   0  0  0  0  0  0  0  0  0 27  0  0
  -16.2589    2.8435    0.0312 Cl  0  0  0  0  0  0  0  0  0 28  0  0
   -7.8725    2.5520    0.0128 H   0  0  0  0  0  0  0  0  0 29  0  0
   -7.7724   -2.3506   -0.4820 H   0  0  0  0  0  0  0  0  0 30  0  0
  -12.1802   -0.0325   -1.0017 H   0  0  0  0  0  0  0  0  0 31  0  0
  -10.5994   -2.1012   -0.9071 H   0  0  0  0  0  0  0  0  0 32  0  0
   -4.2457   -2.9296   -0.1566 H   0  0  0  0  0  0  0  0  0 33  0  0
   -5.6147   -2.8079   -1.2534 H   0  0  0  0  0  0  0  0  0 34  0  0
   -5.8700   -3.1214    0.4868 H   0  0  0  0  0  0  0  0  0 35  0  0
   -5.8768    3.2034   -0.7490 H   0  0  0  0  0  0  0  0  0 36  0  0
   -5.9597    3.2436    1.0196 H   0  0  0  0  0  0  0  0  0 37  0  0
   -3.4525    2.9450    1.0560 H   0  0  0  0  0  0  0  0  0 38  0  0
   -3.4235    3.1109   -0.6885 H   0  0  0  0  0  0  0  0  0 39  0  0
   -3.9751    5.3695   -1.6633 H   0  0  0  0  0  0  0  0  0 40  0  0
   -5.5221    5.3292   -0.8269 H   0  0  0  0  0  0  0  0  0 41  0  0
   -4.8637    7.6759   -1.3218 H   0  0  0  0  0  0  0  0  0 42  0  0
   -5.0223    7.3874    0.3954 H   0  0  0  0  0  0  0  0  0 43  0  0
   -2.4095    7.4683   -1.1837 H   0  0  0  0  0  0  0  0  0 44  0  0
   -2.9489    8.6650   -0.0240 H   0  0  0  0  0  0  0  0  0 45  0  0
   -1.2825    7.0533    0.9622 H   0  0  0  0  0  0  0  0  0 46  0  0
   -2.8108    7.0176    1.8094 H   0  0  0  0  0  0  0  0  0 47  0  0
   -1.8866    5.0164   -0.3179 H   0  0  0  0  0  0  0  0  0 48  0  0
   -2.0428    4.7155    1.4066 H   0  0  0  0  0  0  0  0  0 49  0  0
  -14.4536    5.2454   -0.3377 H   0  0  0  0  0  0  0  0  0 50  0  0
  -11.8739    5.0004   -0.5778 H   0  0  0  0  0  0  0  0  0 51  0  0
  1  2  2  0
  1 29  1  0
  2  3  1  0
  2 12  1  0
  3  4  2  0
  3 10  1  0
  4  5  1  0
  4 30  1  0
  5  6  2  0
  5  9  1  0
  6  1  1  0
  6  7  1  0
  7  8  1  0
  7 21  1  0
  8  9  2  0
  8 31  1  0
  9 32  1  0
 10 11  1  0
 11 33  1  0
 11 34  1  0
 11 35  1  0
 12 13  1  0
 13 14  1  0
 13 36  1  0
 13 37  1  0
 14 15  1  0
 14 38  1  0
 14 39  1  0
 15 16  1  0
 15 20  1  0
 16 17  1  0
 16 40  1  0
 16 41  1  0
 17 18  1  0
 17 42  1  0
 17 43  1  0
 18 19  1  0
 18 44  1  0
 18 45  1  0
 19 20  1  0
 19 46  1  0
 19 47  1  0
 20 48  1  0
 20 49  1  0
 21 22  2  0
 21 23  1  0
 23 24  1  0
 23 27  2  0
 24 25  1  0
 25 26  2  0
 25 28  1  0
 26 27  1  0
 26 50  1  0
 27 51  1  0
M  END
> <Name>
5HT2c_ligand6

> <Principal>
2

> <MaxOmitFeat>
0

$$$$
